<?xml version="1.0" encoding="UTF-8"?>

<!-- generated on 2023-08-15 15:48:35 by Eclipse SUMO netedit Version 1.18.0
<configuration xmlns:xsi="http://www.w3.org/2001/XMLSchema-instance" xsi:noNamespaceSchemaLocation="http://sumo.dlr.de/xsd/neteditConfiguration.xsd">

    <input>
        <sumocfg-file value="E:\Essential\testsumo\data\graph202308142106.sumocfg"/>
        <route-files value="E:\Essential\testsumo\data\graph202308142106.rou.xml"/>
        <sumo-net-file value="E:\Essential\testsumo\data\graph202308142106.net.xml"/>
        <essential-files value="E:\Essential\testsumo\data\graph202308142106.essential"/>
    </input>

    <output>
        <output-file value="E:\Essential\testsumo\data\graph202308142106.net.xml"/>
    </output>

    <projection>
        <proj.utm value="true"/>
    </projection>

    <processing>
        <geometry.remove value="true"/>
        <offset.disable-normalization value="true"/>
    </processing>

    <tls_building>
        <tls.discard-simple value="true"/>
        <tls.guess-signals value="true"/>
    </tls_building>

    <ramp_guessing>
        <ramps.guess value="true"/>
    </ramp_guessing>

    <junctions>
        <no-turnarounds value="true"/>
        <junctions.join value="true"/>
    </junctions>

</configuration>
-->

<net version="1.16" junctionCornerDetail="5" limitTurnSpeed="5.50" xmlns:xsi="http://www.w3.org/2001/XMLSchema-instance" xsi:noNamespaceSchemaLocation="http://sumo.dlr.de/xsd/net_file.xsd">

    <location netOffset="0.00,0.00" convBoundary="681750.92,5913363.54,682129.67,5913565.08" origBoundary="-6.270006,53.338125,-6.264330,53.339930" projParameter="+proj=utm +zone=29 +ellps=WGS84 +datum=WGS84 +units=m +no_defs"/>

    <type id="highway.footway" priority="1" numLanes="1" speed="2.78" allow="pedestrian" oneway="1" width="2.00"/>
    <type id="highway.residential" priority="3" numLanes="1" speed="13.89" disallow="tram rail_urban rail rail_electric rail_fast ship" oneway="0"/>
    <type id="highway.secondary" priority="11" numLanes="1" speed="27.78" disallow="tram rail_urban rail rail_electric rail_fast ship" oneway="0"/>
    <type id="highway.service" priority="1" numLanes="1" speed="5.56" allow="pedestrian delivery bicycle" oneway="0"/>
    <type id="highway.tertiary" priority="10" numLanes="1" speed="22.22" disallow="tram rail_urban rail rail_electric rail_fast ship" oneway="0"/>
    <type id="highway.unclassified" priority="4" numLanes="1" speed="13.89" disallow="tram rail_urban rail rail_electric rail_fast ship" oneway="0"/>

    <edge id=":10253939533_0" function="internal">
        <lane id=":10253939533_0_0" index="0" allow="pedestrian delivery bicycle" speed="5.43" length="4.68" shape="681876.65,5913378.83 681875.43,5913379.05 681874.47,5913379.59 681873.78,5913380.44 681873.34,5913381.60"/>
    </edge>
    <edge id=":10253939533_1" function="internal">
        <lane id=":10253939533_1_0" index="0" allow="pedestrian delivery bicycle" speed="5.56" length="8.84" shape="681870.22,5913380.87 681871.05,5913378.68 681872.37,5913377.07 681874.18,5913376.06 681876.48,5913375.63"/>
    </edge>
    <edge id=":10602668616_0" function="internal">
        <lane id=":10602668616_0_0" index="0" allow="pedestrian delivery bicycle" speed="5.06" length="5.02" shape="681984.93,5913459.34 681983.65,5913458.82 681982.51,5913458.83 681981.51,5913459.37 681980.66,5913460.43"/>
    </edge>
    <edge id=":10602668616_1" function="internal">
        <lane id=":10602668616_1_0" index="0" allow="pedestrian delivery bicycle" speed="5.04" length="5.01" shape="681985.41,5913452.33 681984.89,5913453.60 681984.91,5913454.73 681985.45,5913455.72 681986.53,5913456.56"/>
    </edge>
    <edge id=":10602668616_2" function="internal">
        <lane id=":10602668616_2_0" index="0" disallow="tram rail_urban rail rail_electric rail_fast ship" speed="8.33" length="9.40" shape="681985.41,5913452.33 681980.66,5913460.43"/>
    </edge>
    <edge id=":10602668621_0" function="internal">
        <lane id=":10602668621_0_0" index="0" allow="pedestrian delivery bicycle" speed="6.95" length="8.13" shape="681975.90,5913479.20 681973.04,5913479.40 681970.83,5913479.84 681969.26,5913480.52 681968.34,5913481.43"/>
    </edge>
    <edge id=":10602668621_1" function="internal">
        <lane id=":10602668621_1_0" index="0" allow="pedestrian delivery bicycle" speed="4.67" length="5.91" shape="681973.66,5913472.34 681972.96,5913473.98 681973.09,5913475.14 681974.04,5913475.82 681975.82,5913476.00"/>
    </edge>
    <edge id=":10602668621_2" function="internal">
        <lane id=":10602668621_2_0" index="0" disallow="tram rail_urban rail rail_electric rail_fast ship" speed="8.33" length="10.54" shape="681973.66,5913472.34 681968.34,5913481.43"/>
    </edge>
    <edge id=":135109553_0" function="internal">
        <lane id=":135109553_0_0" index="0" allow="pedestrian delivery bicycle" speed="5.56" length="16.61" shape="682065.56,5913527.89 682061.87,5913525.69 682060.44,5913522.78 682061.28,5913519.15 682064.39,5913514.81"/>
    </edge>
    <edge id=":135109553_1" function="internal">
        <lane id=":135109553_1_0" index="0" allow="pedestrian delivery bicycle" speed="6.28" length="14.01" shape="682065.56,5913527.89 682062.27,5913526.08 682061.73,5913524.19 682063.93,5913522.23 682068.87,5913520.19"/>
    </edge>
    <edge id=":135109553_2" function="internal">
        <lane id=":135109553_2_0" index="0" allow="pedestrian delivery bicycle" speed="4.91" length="8.44" shape="682066.77,5913516.95 682065.01,5913519.25 682064.77,5913520.56 682066.06,5913520.87 682068.87,5913520.19"/>
    </edge>
    <edge id=":135109553_3" function="internal">
        <lane id=":135109553_3_0" index="0" allow="pedestrian delivery bicycle" speed="5.56" length="9.91" shape="682066.77,5913516.95 682064.75,5913519.68 682064.07,5913521.91 682064.72,5913523.64 682066.70,5913524.89"/>
    </edge>
    <edge id=":135109553_4" function="internal">
        <lane id=":135109553_4_0" index="0" allow="pedestrian delivery bicycle" speed="6.95" length="14.57" shape="682054.17,5913524.89 682057.32,5913523.23 682059.82,5913520.70 682062.06,5913517.75 682064.39,5913514.81"/>
    </edge>
    <edge id=":135109553_5" function="internal">
        <lane id=":135109553_5_0" index="0" disallow="tram rail_urban rail rail_electric rail_fast ship" speed="8.33" length="15.43" shape="682054.17,5913524.89 682068.87,5913520.19"/>
    </edge>
    <edge id=":135109553_6" function="internal">
        <lane id=":135109553_6_0" index="0" allow="pedestrian delivery bicycle" speed="6.95" length="8.96" shape="682054.17,5913524.89 682057.49,5913524.04 682060.48,5913523.69 682062.99,5913523.90"/>
    </edge>
    <edge id=":135109553_7" function="internal">
        <lane id=":135109553_7_0" index="0" allow="pedestrian delivery bicycle" speed="6.95" length="3.85" shape="682062.99,5913523.90 682063.44,5913523.94 682066.70,5913524.89"/>
    </edge>
    <edge id=":135109570_0" function="internal">
        <lane id=":135109570_0_0" index="0" disallow="tram rail_urban rail rail_electric rail_fast ship" speed="8.33" length="4.38" shape="682114.74,5913458.77 682114.29,5913457.43 682113.98,5913456.51 682113.78,5913455.56 682113.65,5913454.16"/>
        <lane id=":135109570_0_1" index="1" disallow="tram rail_urban rail rail_electric rail_fast ship" speed="8.33" length="4.38" shape="682117.79,5913457.80 682117.41,5913456.68 682117.14,5913455.91 682116.96,5913455.12 682116.84,5913453.95"/>
    </edge>
    <edge id=":135109570_2" function="internal">
        <lane id=":135109570_2_0" index="0" allow="pedestrian delivery bicycle" speed="5.06" length="4.10" shape="682110.85,5913456.76 682112.12,5913456.25 682113.00,5913455.65 682113.52,5913454.95 682113.65,5913454.16"/>
    </edge>
    <edge id=":135109574_0" function="internal">
        <lane id=":135109574_0_0" index="0" disallow="tram rail_urban rail rail_electric rail_fast ship" speed="8.33" length="6.17" shape="682020.24,5913486.93 682019.61,5913480.79"/>
    </edge>
    <edge id=":135109574_1" function="internal">
        <lane id=":135109574_1_0" index="0" allow="pedestrian delivery bicycle" speed="7.58" length="10.56" shape="682020.24,5913486.93 682020.77,5913486.13 682022.52,5913485.13 682025.48,5913483.93 682029.64,5913482.52"/>
    </edge>
    <edge id=":135109574_2" function="internal">
        <lane id=":135109574_2_0" index="0" allow="pedestrian delivery bicycle" speed="4.85" length="5.26" shape="682025.98,5913480.12 682026.34,5913481.56 682027.07,5913482.44 682028.17,5913482.76 682029.64,5913482.52"/>
    </edge>
    <edge id=":135109574_3" function="internal">
        <lane id=":135109574_3_0" index="0" disallow="tram rail_urban rail rail_electric rail_fast ship" speed="8.33" length="6.23" shape="682025.98,5913480.12 682026.61,5913486.34"/>
        <lane id=":135109574_3_1" index="1" disallow="tram rail_urban rail rail_electric rail_fast ship" speed="8.33" length="6.23" shape="682022.80,5913480.46 682023.42,5913486.64"/>
    </edge>
    <edge id=":135109580_0" function="internal">
        <lane id=":135109580_0_0" index="0" allow="pedestrian delivery bicycle" speed="4.71" length="7.00" shape="682091.02,5913508.96 682090.04,5913511.01 682090.13,5913512.23 682091.29,5913512.60 682093.52,5913512.13"/>
    </edge>
    <edge id=":135109580_1" function="internal">
        <lane id=":135109580_1_0" index="0" allow="pedestrian delivery bicycle" speed="6.95" length="11.62" shape="682081.33,5913516.10 682084.05,5913514.66 682085.61,5913512.71 682086.77,5913510.25 682088.28,5913507.29"/>
    </edge>
    <edge id=":135109580_2" function="internal">
        <lane id=":135109580_2_0" index="0" disallow="tram rail_urban rail rail_electric rail_fast ship" speed="8.33" length="12.82" shape="682081.33,5913516.10 682093.52,5913512.13"/>
    </edge>
    <edge id=":17648104_0" function="internal">
        <lane id=":17648104_0_0" index="0" disallow="tram rail_urban rail rail_electric rail_fast ship" speed="8.33" length="25.93" shape="681788.93,5913365.66 681795.89,5913364.13 681800.98,5913366.08 681804.06,5913371.03 681804.99,5913378.50"/>
    </edge>
    <edge id=":17648104_1" function="internal">
        <lane id=":17648104_1_0" index="0" disallow="tram rail_urban rail rail_electric rail_fast ship" speed="5.77" length="9.16" shape="681798.59,5913378.35 681798.28,5913375.67 681797.21,5913374.13 681795.37,5913373.72 681792.77,5913374.45"/>
        <lane id=":17648104_1_1" index="1" disallow="tram rail_urban rail rail_electric rail_fast ship" speed="7.45" length="16.22" shape="681801.79,5913378.43 681801.24,5913373.67 681799.35,5913370.94 681796.10,5913370.22 681791.49,5913371.52"/>
    </edge>
    <edge id=":17648111_0" function="internal">
        <lane id=":17648111_0_0" index="0" disallow="tram rail_urban rail rail_electric rail_fast ship" speed="3.94" length="2.07" shape="681999.22,5913397.67 681999.76,5913397.80 682000.17,5913398.07 682000.45,5913398.46 682000.62,5913398.98"/>
    </edge>
    <edge id=":2384200130_0" function="internal">
        <lane id=":2384200130_0_0" index="0" disallow="tram rail_urban rail rail_electric rail_fast ship" speed="5.87" length="8.82" shape="682013.50,5913422.43 682012.89,5913419.88 682011.69,5913418.39 682009.90,5913417.96 682007.53,5913418.59"/>
    </edge>
    <edge id=":2384200130_1" function="internal">
        <lane id=":2384200130_1_0" index="0" disallow="tram rail_urban rail rail_electric rail_fast ship" speed="8.33" length="11.73" shape="682013.50,5913422.43 682013.18,5913419.20 682013.02,5913416.58 682013.06,5913413.95 682013.37,5913410.73"/>
    </edge>
    <edge id=":2384200130_2" function="internal">
        <lane id=":2384200130_2_0" index="0" disallow="tram rail_urban rail rail_electric rail_fast ship" speed="8.33" length="10.67" shape="682019.72,5913411.49 682019.41,5913414.53 682019.36,5913416.62 682019.53,5913418.72 682019.87,5913421.76"/>
        <lane id=":2384200130_2_1" index="1" disallow="tram rail_urban rail rail_electric rail_fast ship" speed="8.33" length="10.67" shape="682016.54,5913411.11 682016.21,5913414.36 682016.15,5913416.60 682016.33,5913418.84 682016.68,5913422.09"/>
    </edge>
    <edge id=":2384200130_4" function="internal">
        <lane id=":2384200130_4_0" index="0" disallow="tram rail_urban rail rail_electric rail_fast ship" speed="8.33" length="12.12" shape="682016.54,5913411.11 682015.81,5913412.99 682014.07,5913414.86 682011.31,5913416.73 682007.53,5913418.59"/>
    </edge>
    <edge id=":2384200132_0" function="internal">
        <lane id=":2384200132_0_0" index="0" disallow="tram rail_urban rail rail_electric rail_fast ship" speed="8.33" length="5.14" shape="682007.19,5913418.75 682005.78,5913419.34 682004.83,5913419.84 682004.07,5913420.56 682003.24,5913421.81"/>
    </edge>
    <edge id=":2384200132_1" function="internal">
        <lane id=":2384200132_1_0" index="0" disallow="tram rail_urban rail rail_electric rail_fast ship" speed="8.33" length="5.50" shape="682003.69,5913416.52 682004.00,5913418.13 682004.14,5913419.29 682003.94,5913420.38 682003.24,5913421.81"/>
    </edge>
    <edge id=":247416072_0" function="internal">
        <lane id=":247416072_0_0" index="0" disallow="tram rail_urban rail rail_electric rail_fast ship" speed="8.33" length="11.44" shape="681956.15,5913502.36 681954.77,5913505.22 681954.01,5913507.64 681953.28,5913510.07 681951.97,5913512.98"/>
    </edge>
    <edge id=":247416072_1" function="internal">
        <lane id=":247416072_1_0" index="0" disallow="tram rail_urban rail rail_electric rail_fast ship" speed="8.33" length="14.48" shape="681956.15,5913502.36 681953.78,5913505.50 681950.98,5913507.56 681947.74,5913508.55 681944.07,5913508.45"/>
    </edge>
    <edge id=":247416072_2" function="internal">
        <lane id=":247416072_2_0" index="0" disallow="tram rail_urban rail rail_electric rail_fast ship" speed="6.91" length="12.97" shape="681944.58,5913505.29 681949.03,5913506.42 681951.74,5913508.08 681952.72,5913510.27 681951.97,5913512.98"/>
    </edge>
    <edge id=":247416072_3" function="internal">
        <lane id=":247416072_3_0" index="0" disallow="tram rail_urban rail rail_electric rail_fast ship" speed="5.16" length="6.64" shape="681949.16,5913511.45 681949.25,5913510.51 681948.43,5913509.71 681946.70,5913509.02 681944.07,5913508.45"/>
    </edge>
    <edge id=":247416073_0" function="internal">
        <lane id=":247416073_0_0" index="0" disallow="tram rail_urban rail rail_electric rail_fast ship" speed="5.61" length="9.31" shape="681940.27,5913534.69 681939.26,5913537.34 681939.53,5913539.14 681941.08,5913540.10 681943.90,5913540.23"/>
    </edge>
    <edge id=":26165090_0" function="internal">
        <lane id=":26165090_0_0" index="0" disallow="tram rail_urban rail rail_electric rail_fast ship" speed="6.51" length="9.00" shape="682122.84,5913502.64 682125.06,5913501.56 682126.40,5913500.03 682126.86,5913498.05 682126.46,5913495.62"/>
        <lane id=":26165090_0_1" index="1" disallow="tram rail_urban rail rail_electric rail_fast ship" speed="7.33" length="11.68" shape="682122.84,5913502.64 682126.39,5913501.13 682128.68,5913499.29 682129.72,5913497.13 682129.51,5913494.65"/>
    </edge>
    <edge id=":2996413692_0" function="internal">
        <lane id=":2996413692_0_0" index="0" allow="pedestrian delivery bicycle" speed="7.67" length="12.66" shape="682037.10,5913566.15 682032.98,5913566.05 682029.95,5913565.11 682028.01,5913563.34 682027.18,5913560.73"/>
    </edge>
    <edge id=":2996413692_1" function="internal">
        <lane id=":2996413692_1_0" index="0" allow="pedestrian delivery bicycle" speed="5.07" length="4.97" shape="682033.55,5913560.12 682033.87,5913561.44 682034.53,5913562.35 682035.54,5913562.86 682036.89,5913562.96"/>
    </edge>
    <edge id=":3562601793_0" function="internal">
        <lane id=":3562601793_0_0" index="0" disallow="tram rail_urban rail rail_electric rail_fast ship" speed="8.33" length="11.76" shape="681798.60,5913490.24 681797.43,5913493.26 681796.31,5913495.64 681795.09,5913497.98 681793.63,5913500.88"/>
    </edge>
    <edge id=":3562601793_1" function="internal">
        <lane id=":3562601793_1_0" index="0" allow="pedestrian delivery bicycle" speed="6.95" length="1.96" shape="681798.60,5913490.24 681797.66,5913491.41 681797.29,5913491.67"/>
    </edge>
    <edge id=":3562601793_6" function="internal">
        <lane id=":3562601793_6_0" index="0" allow="pedestrian delivery bicycle" speed="6.95" length="10.55" shape="681797.29,5913491.67 681795.58,5913492.86 681792.34,5913494.57 681787.96,5913496.54"/>
    </edge>
    <edge id=":3562601793_2" function="internal">
        <lane id=":3562601793_2_0" index="0" allow="pedestrian delivery bicycle" speed="6.95" length="9.95" shape="681786.71,5913493.59 681788.44,5913492.87 681791.37,5913491.59 681794.19,5913490.21 681795.59,5913489.17"/>
    </edge>
    <edge id=":3562601793_3" function="internal">
        <lane id=":3562601793_3_0" index="0" allow="pedestrian delivery bicycle" speed="6.95" length="17.30" shape="681786.71,5913493.59 681792.09,5913491.95 681795.04,5913492.61 681795.55,5913495.59 681793.63,5913500.88"/>
    </edge>
    <edge id=":3562601793_4" function="internal">
        <lane id=":3562601793_4_0" index="0" allow="pedestrian delivery bicycle" speed="4.70" length="6.97" shape="681790.75,5913499.47 681791.52,5913497.34 681791.32,5913496.14 681790.13,5913495.87 681787.96,5913496.54"/>
    </edge>
    <edge id=":3562601793_5" function="internal">
        <lane id=":3562601793_5_0" index="0" disallow="tram rail_urban rail rail_electric rail_fast ship" speed="8.33" length="11.39" shape="681790.75,5913499.47 681792.20,5913496.63 681793.37,5913494.41 681794.44,5913492.14 681795.59,5913489.17"/>
    </edge>
    <edge id=":3562601802_0" function="internal">
        <lane id=":3562601802_0_0" index="0" disallow="tram rail_urban rail rail_electric rail_fast ship" speed="8.33" length="10.17" shape="681898.61,5913501.03 681888.57,5913499.43"/>
    </edge>
    <edge id=":3562601802_1" function="internal">
        <lane id=":3562601802_1_0" index="0" allow="pedestrian delivery bicycle" speed="6.67" length="4.00" shape="681898.61,5913501.03 681894.90,5913499.89 681894.82,5913499.81"/>
    </edge>
    <edge id=":3562601802_6" function="internal">
        <lane id=":3562601802_6_0" index="0" allow="pedestrian delivery bicycle" speed="6.67" length="9.06" shape="681894.82,5913499.81 681893.05,5913498.00 681893.07,5913495.36 681894.97,5913491.96"/>
    </edge>
    <edge id=":3562601802_2" function="internal">
        <lane id=":3562601802_2_0" index="0" allow="pedestrian delivery bicycle" speed="4.69" length="5.74" shape="681897.53,5913493.89 681896.70,5913495.38 681896.68,5913496.54 681897.50,5913497.37 681899.13,5913497.87"/>
    </edge>
    <edge id=":3562601802_3" function="internal">
        <lane id=":3562601802_3_0" index="0" allow="pedestrian delivery bicycle" speed="6.95" length="11.02" shape="681897.53,5913493.89 681895.23,5913496.55 681892.96,5913498.37 681890.74,5913499.33 681888.57,5913499.43"/>
    </edge>
    <edge id=":3562601802_4" function="internal">
        <lane id=":3562601802_4_0" index="0" allow="pedestrian delivery bicycle" speed="6.95" length="7.61" shape="681889.04,5913496.27 681890.32,5913496.13 681891.74,5913495.37 681893.29,5913493.98 681894.97,5913491.96"/>
    </edge>
    <edge id=":3562601802_5" function="internal">
        <lane id=":3562601802_5_0" index="0" disallow="tram rail_urban rail rail_electric rail_fast ship" speed="8.33" length="10.22" shape="681889.04,5913496.27 681899.13,5913497.87"/>
    </edge>
    <edge id=":3562601807_0" function="internal">
        <lane id=":3562601807_0_0" index="0" allow="pedestrian delivery bicycle" speed="5.56" length="15.86" shape="681917.61,5913468.69 681916.64,5913470.08 681915.60,5913473.07 681914.49,5913477.65 681913.30,5913483.82"/>
    </edge>
    <edge id=":3562601807_1" function="internal">
        <lane id=":3562601807_1_0" index="0" allow="pedestrian delivery bicycle" speed="5.56" length="17.13" shape="681917.61,5913468.69 681914.54,5913471.30 681911.67,5913474.73 681909.04,5913478.40 681906.65,5913481.75"/>
    </edge>
    <edge id=":3562601807_2" function="internal">
        <lane id=":3562601807_2_0" index="0" allow="pedestrian delivery bicycle" speed="5.56" length="18.26" shape="681904.09,5913479.83 681906.61,5913476.36 681909.53,5913472.42 681912.69,5913468.73 681915.89,5913465.99"/>
    </edge>
    <edge id=":3562601807_3" function="internal">
        <lane id=":3562601807_3_0" index="0" allow="pedestrian delivery bicycle" speed="5.56" length="13.72" shape="681904.09,5913479.83 681907.08,5913477.80 681910.31,5913478.09 681912.74,5913480.25 681913.30,5913483.82"/>
    </edge>
    <edge id=":3562601807_4" function="internal">
        <lane id=":3562601807_4_0" index="0" allow="pedestrian delivery bicycle" speed="5.00" length="9.02" shape="681910.15,5913483.27 681910.46,5913480.15 681909.98,5913478.86 681908.71,5913479.39 681906.65,5913481.75"/>
    </edge>
    <edge id=":3562601807_5" function="internal">
        <lane id=":3562601807_5_0" index="0" allow="pedestrian delivery bicycle" speed="5.56" length="18.43" shape="681910.15,5913483.27 681911.52,5913476.44 681912.93,5913471.28 681914.39,5913467.80 681915.89,5913465.99"/>
    </edge>
    <edge id=":3562601809_0" function="internal">
        <lane id=":3562601809_0_0" index="0" disallow="tram rail_urban rail rail_electric rail_fast ship" speed="8.33" length="9.38" shape="681879.69,5913498.10 681870.42,5913496.73"/>
    </edge>
    <edge id=":3562601809_1" function="internal">
        <lane id=":3562601809_1_0" index="0" allow="pedestrian delivery bicycle" speed="6.84" length="3.27" shape="681879.69,5913498.10 681876.99,5913497.29 681876.65,5913497.00"/>
    </edge>
    <edge id=":3562601809_6" function="internal">
        <lane id=":3562601809_6_0" index="0" allow="pedestrian delivery bicycle" speed="6.84" length="7.01" shape="681876.65,5913497.00 681875.21,5913495.81 681874.37,5913493.65 681874.45,5913490.83"/>
    </edge>
    <edge id=":3562601809_2" function="internal">
        <lane id=":3562601809_2_0" index="0" allow="pedestrian delivery bicycle" speed="5.01" length="5.03" shape="681877.60,5913491.38 681877.56,5913492.76 681877.97,5913493.81 681878.84,5913494.54 681880.17,5913494.94"/>
    </edge>
    <edge id=":3562601809_3" function="internal">
        <lane id=":3562601809_3_0" index="0" allow="pedestrian delivery bicycle" speed="6.93" length="10.16" shape="681877.60,5913491.38 681876.75,5913494.05 681875.26,5913495.84 681873.15,5913496.73 681870.42,5913496.73"/>
    </edge>
    <edge id=":3562601809_4" function="internal">
        <lane id=":3562601809_4_0" index="0" allow="pedestrian delivery bicycle" speed="5.13" length="5.10" shape="681870.87,5913493.57 681872.23,5913493.56 681873.28,5913493.10 681874.02,5913492.19 681874.45,5913490.83"/>
    </edge>
    <edge id=":3562601809_5" function="internal">
        <lane id=":3562601809_5_0" index="0" disallow="tram rail_urban rail rail_electric rail_fast ship" speed="8.33" length="9.39" shape="681870.87,5913493.57 681880.17,5913494.94"/>
    </edge>
    <edge id=":3562601816_0" function="internal">
        <lane id=":3562601816_0_0" index="0" allow="pedestrian delivery bicycle" speed="6.17" length="7.70" shape="681878.72,5913393.49 681879.10,5913392.17 681880.26,5913391.17 681882.20,5913390.50 681884.92,5913390.17"/>
    </edge>
    <edge id=":3562601816_1" function="internal">
        <lane id=":3562601816_1_0" index="0" disallow="tram rail_urban rail rail_electric rail_fast ship" speed="8.33" length="9.30" shape="681875.62,5913390.39 681884.92,5913390.17"/>
    </edge>
    <edge id=":3562601816_2" function="internal">
        <lane id=":3562601816_2_0" index="0" allow="pedestrian delivery bicycle" speed="6.09" length="7.73" shape="681875.62,5913390.39 681878.37,5913390.60 681880.34,5913391.19 681881.52,5913392.15 681881.92,5913393.48"/>
    </edge>
    <edge id=":3562601819_0" function="internal">
        <lane id=":3562601819_0_0" index="0" allow="pedestrian delivery bicycle" speed="5.56" length="6.27" shape="681880.52,5913427.44 681879.59,5913425.85 681879.07,5913424.66 681878.85,5913423.40 681878.81,5913421.55"/>
    </edge>
    <edge id=":3562601819_1" function="internal">
        <lane id=":3562601819_1_0" index="0" allow="pedestrian delivery bicycle" speed="3.80" length="5.02" shape="681880.52,5913427.44 681880.35,5913426.16 681881.06,5913425.11 681882.20,5913424.66 681883.31,5913425.20"/>
    </edge>
    <edge id=":3562601819_2" function="internal">
        <lane id=":3562601819_2_0" index="0" allow="pedestrian delivery bicycle" speed="5.56" length="6.21" shape="681880.82,5913427.21 681879.70,5913425.76 681879.10,5913424.63 681878.86,5913423.37 681878.81,5913421.55"/>
    </edge>
    <edge id=":3562601819_3" function="internal">
        <lane id=":3562601819_3_0" index="0" allow="pedestrian delivery bicycle" speed="5.56" length="21.13" shape="681880.82,5913427.21 681885.87,5913433.17 681887.93,5913434.85 681886.99,5913432.27 681883.04,5913425.42"/>
    </edge>
    <edge id=":3562601819_4" function="internal">
        <lane id=":3562601819_4_0" index="0" allow="pedestrian delivery bicycle" speed="5.56" length="4.02" shape="681882.01,5913421.54 681882.04,5913422.72 681882.20,5913423.53 681882.59,5913424.27 681883.31,5913425.20"/>
    </edge>
    <edge id=":3562601819_5" function="internal">
        <lane id=":3562601819_5_0" index="0" allow="pedestrian delivery bicycle" speed="5.56" length="4.10" shape="681882.01,5913421.54 681882.02,5913422.75 681882.13,5913423.59 681882.44,5913424.37 681883.04,5913425.42"/>
    </edge>
    <edge id=":3566241825_0" function="internal">
        <lane id=":3566241825_0_0" index="0" disallow="tram rail_urban rail rail_electric rail_fast ship" speed="8.33" length="9.32" shape="682090.04,5913404.42 682080.72,5913404.11"/>
    </edge>
    <edge id=":3566241825_1" function="internal">
        <lane id=":3566241825_1_0" index="0" allow="pedestrian delivery bicycle" speed="6.74" length="3.32" shape="682090.04,5913404.42 682087.38,5913403.96 682086.84,5913403.66"/>
    </edge>
    <edge id=":3566241825_6" function="internal">
        <lane id=":3566241825_6_0" index="0" allow="pedestrian delivery bicycle" speed="6.74" length="6.10" shape="682086.84,5913403.66 682085.47,5913402.86 682084.33,5913401.12 682083.94,5913398.72"/>
    </edge>
    <edge id=":3566241825_2" function="internal">
        <lane id=":3566241825_2_0" index="0" allow="pedestrian delivery bicycle" speed="4.86" length="4.43" shape="682087.14,5913398.71 682087.33,5913399.76 682087.90,5913400.53 682088.85,5913401.01 682090.18,5913401.22"/>
    </edge>
    <edge id=":3566241825_3" function="internal">
        <lane id=":3566241825_3_0" index="0" allow="pedestrian delivery bicycle" speed="6.63" length="9.60" shape="682087.14,5913398.71 682086.75,5913401.13 682085.55,5913402.84 682083.54,5913403.83 682080.72,5913404.11"/>
    </edge>
    <edge id=":3566241825_4" function="internal">
        <lane id=":3566241825_4_0" index="0" allow="pedestrian delivery bicycle" speed="4.72" length="4.35" shape="682080.80,5913400.91 682082.18,5913400.80 682083.16,5913400.40 682083.75,5913399.71 682083.94,5913398.72"/>
    </edge>
    <edge id=":3566241825_5" function="internal">
        <lane id=":3566241825_5_0" index="0" disallow="tram rail_urban rail rail_electric rail_fast ship" speed="8.33" length="9.38" shape="682080.80,5913400.91 682090.18,5913401.22"/>
    </edge>
    <edge id=":3577629914_0" function="internal">
        <lane id=":3577629914_0_0" index="0" allow="pedestrian delivery bicycle" speed="6.95" length="8.89" shape="682113.64,5913453.96 682113.23,5913453.15 682112.07,5913451.82 682110.16,5913449.97 682107.51,5913447.59"/>
    </edge>
    <edge id=":3577629914_1" function="internal">
        <lane id=":3577629914_1_0" index="0" disallow="tram rail_urban rail rail_electric rail_fast ship" speed="8.33" length="7.90" shape="682113.64,5913453.96 682113.41,5913445.98"/>
        <lane id=":3577629914_1_1" index="1" disallow="tram rail_urban rail rail_electric rail_fast ship" speed="8.33" length="7.90" shape="682116.83,5913453.75 682116.61,5913445.93"/>
    </edge>
    <edge id=":3577629914_3" function="internal">
        <lane id=":3577629914_3_0" index="0" allow="pedestrian delivery bicycle" speed="4.26" length="5.11" shape="682109.61,5913445.18 682111.29,5913446.49 682112.49,5913447.05 682113.19,5913446.89 682113.41,5913445.98"/>
    </edge>
    <edge id=":36313879_0" function="internal">
        <lane id=":36313879_0_0" index="0" disallow="tram rail_urban rail rail_electric rail_fast ship" speed="6.59" length="7.91" shape="681805.40,5913487.32 681802.92,5913487.20 681800.97,5913487.61 681799.56,5913488.56 681798.67,5913490.05"/>
    </edge>
    <edge id=":36313879_1" function="internal">
        <lane id=":36313879_1_0" index="0" allow="pedestrian delivery bicycle" speed="6.95" length="15.02" shape="681805.40,5913487.32 681790.64,5913484.55"/>
    </edge>
    <edge id=":36313879_2" function="internal">
        <lane id=":36313879_2_0" index="0" disallow="tram rail_urban rail rail_electric rail_fast ship" speed="8.01" length="13.70" shape="681805.40,5913487.32 681801.82,5913486.28 681799.37,5913484.34 681798.07,5913481.50 681797.90,5913477.77"/>
    </edge>
    <edge id=":36313879_3" function="internal">
        <lane id=":36313879_3_0" index="0" disallow="tram rail_urban rail rail_electric rail_fast ship" speed="6.51" length="8.72" shape="681801.08,5913478.08 681801.19,5913480.45 681802.02,5913482.26 681803.58,5913483.49 681805.86,5913484.16"/>
    </edge>
    <edge id=":36313879_4" function="internal">
        <lane id=":36313879_4_0" index="0" disallow="tram rail_urban rail rail_electric rail_fast ship" speed="8.33" length="12.25" shape="681801.08,5913478.08 681800.74,5913481.39 681800.32,5913484.16 681799.68,5913486.89 681798.67,5913490.05"/>