<?xml version="1.0" encoding="UTF-8"?>

<!-- generated on 2023-10-10 18:43:58 by Eclipse SUMO netconvert Version 1.18.0
<configuration xmlns:xsi="http://www.w3.org/2001/XMLSchema-instance" xsi:noNamespaceSchemaLocation="http://sumo.dlr.de/xsd/netconvertConfiguration.xsd">

    <input>
        <type-files value="./config/osmNetconvert.typ.xml,./config/osmNetconvertUrbanDe.typ.xml"/>
        <essential-files value="test.essential"/>
    </input>

    <output>
        <output-file value="test.net.xml"/>
        <output.original-names value="true"/>
    </output>

    <projection>
        <proj.utm value="true"/>
    </projection>

    <processing>
        <geometry.remove value="true"/>
        <lefthand value="true"/>
    </processing>

    <tls_building>
        <tls.discard-simple value="true"/>
        <tls.join value="true"/>
        <tls.guess-signals value="true"/>
    </tls_building>

    <ramp_guessing>
        <ramps.guess value="true"/>
    </ramp_guessing>

    <junctions>
        <junctions.join value="true"/>
    </junctions>

</configuration>
-->

<net version="1.16" junctionCornerDetail="5" lefthand="true" limitTurnSpeed="5.50" xmlns:xsi="http://www.w3.org/2001/XMLSchema-instance" xsi:noNamespaceSchemaLocation="http://sumo.dlr.de/xsd/net_file.xsd">

    <location netOffset="-681081.98,-5913455.06" convBoundary="0.00,-0.00,692.76,473.09" origBoundary="-6.280007,53.339162,-6.269625,53.343239" projParameter="+proj=utm +zone=29 +ellps=WGS84 +datum=WGS84 +units=m +no_defs"/>

    <type id="highway.cycleway" priority="1" numLanes="1" speed="5.56" allow="bicycle" oneway="0" width="2.00"/>
    <type id="highway.footway" priority="1" numLanes="1" speed="2.78" allow="pedestrian" oneway="1" width="2.00"/>
    <type id="highway.residential" priority="3" numLanes="1" speed="13.89" disallow="tram rail_urban rail rail_electric rail_fast ship" oneway="0"/>
    <type id="highway.secondary" priority="11" numLanes="1" speed="13.89" disallow="tram rail_urban rail rail_electric rail_fast ship" oneway="0"/>
    <type id="highway.secondary_link" priority="6" numLanes="1" speed="13.89" disallow="tram rail_urban rail rail_electric rail_fast ship" oneway="0"/>
    <type id="highway.service" priority="1" numLanes="1" speed="5.56" allow="pedestrian delivery bicycle" oneway="0"/>
    <type id="highway.steps" priority="1" numLanes="1" speed="1.39" allow="pedestrian" oneway="1" width="2.00"/>
    <type id="highway.tertiary" priority="10" numLanes="1" speed="13.89" disallow="tram rail_urban rail rail_electric rail_fast ship" oneway="0"/>
    <type id="highway.unclassified" priority="4" numLanes="1" speed="13.89" disallow="tram rail_urban rail rail_electric rail_fast ship" oneway="0"/>

    <edge id=":10612651973_0" function="internal">
        <lane id=":10612651973_0_0" index="0" allow="pedestrian delivery bicycle" speed="3.65" length="4.67" shape="618.07,270.04 618.82,271.28 619.61,271.71 620.42,271.34 621.27,270.17"/>
    </edge>
    <edge id=":10612651975_0" function="internal">
        <lane id=":10612651975_0_0" index="0" disallow="tram rail_urban rail rail_electric rail_fast ship" speed="8.33" length="9.39" shape="628.11,176.31 618.73,176.16"/>
    </edge>
    <edge id=":10612651975_1" function="internal">
        <lane id=":10612651975_1_0" index="0" allow="pedestrian delivery bicycle" speed="6.15" length="7.78" shape="628.11,176.31 625.37,176.47 623.39,177.03 622.18,177.99 621.73,179.35"/>
    </edge>
    <edge id=":10612651975_2" function="internal">
        <lane id=":10612651975_2_0" index="0" allow="pedestrian delivery bicycle" speed="6.06" length="7.81" shape="624.93,179.48 624.59,178.07 623.44,177.05 621.49,176.41 618.73,176.16"/>
    </edge>
    <edge id=":10612651975_3" function="internal">
        <lane id=":10612651975_3_0" index="0" allow="pedestrian delivery bicycle" speed="3.65" length="4.67" shape="624.93,179.48 624.18,178.25 623.40,177.82 622.58,178.18 621.73,179.35"/>
    </edge>
    <edge id=":10613033651_0" function="internal">
        <lane id=":10613033651_0_0" index="0" allow="pedestrian delivery bicycle" speed="5.03" length="5.02" shape="466.33,368.69 465.00,369.04 463.88,368.89 462.97,368.22 462.27,367.03"/>
    </edge>
    <edge id=":10613033651_1" function="internal">
        <lane id=":10613033651_1_0" index="0" disallow="tram rail_urban rail rail_electric rail_fast ship" speed="8.33" length="9.20" shape="466.33,368.69 463.82,369.77 462.13,370.56 460.49,371.46 458.16,372.87"/>
    </edge>
    <edge id=":10613033651_2" function="internal">
        <lane id=":10613033651_2_0" index="0" disallow="tram rail_urban rail rail_electric rail_fast ship" speed="8.33" length="8.74" shape="459.83,375.60 462.05,374.26 463.60,373.40 465.21,372.65 467.59,371.63"/>
    </edge>
    <edge id=":10613033651_3" function="internal">
        <lane id=":10613033651_3_0" index="0" allow="pedestrian delivery bicycle" speed="6.95" length="3.03" shape="459.83,375.60 461.77,373.97 462.00,373.53"/>
    </edge>
    <edge id=":10613033651_7" function="internal">
        <lane id=":10613033651_7_0" index="0" allow="pedestrian delivery bicycle" speed="6.95" length="6.81" shape="462.00,373.53 462.83,372.00 462.99,369.68 462.27,367.03"/>
    </edge>
    <edge id=":10613033651_4" function="internal">
        <lane id=":10613033651_4_0" index="0" allow="pedestrian delivery bicycle" speed="5.43" length="5.25" shape="459.31,368.25 459.72,369.71 459.67,370.97 459.15,372.02 458.16,372.87"/>
    </edge>
    <edge id=":10613033651_5" function="internal">
        <lane id=":10613033651_5_0" index="0" allow="pedestrian delivery bicycle" speed="6.85" length="10.23" shape="459.31,368.25 460.74,370.67 462.60,372.04 464.88,372.36 467.59,371.63"/>
    </edge>
    <edge id=":10613033651_6" function="internal">
        <lane id=":10613033651_6_0" index="0" allow="pedestrian delivery bicycle" speed="3.65" length="4.67" shape="459.31,368.25 460.51,369.06 461.40,369.12 461.99,368.45 462.27,367.03"/>
    </edge>
    <edge id=":10613033654_0" function="internal">
        <lane id=":10613033654_0_0" index="0" allow="pedestrian delivery bicycle" speed="3.65" length="4.67" shape="449.50,336.11 448.30,335.31 447.41,335.24 446.82,335.92 446.54,337.33"/>
    </edge>
    <edge id=":10625164437_0" function="internal">
        <lane id=":10625164437_0_0" index="0" allow="pedestrian delivery bicycle" speed="3.65" length="4.67" shape="634.94,415.33 633.73,416.11 633.32,416.91 633.71,417.71 634.90,418.53"/>
    </edge>
    <edge id=":10649675963_0" function="internal">
        <lane id=":10649675963_0_0" index="0" allow="pedestrian delivery bicycle" speed="4.96" length="5.10" shape="317.97,45.46 316.60,45.80 315.48,45.61 314.62,44.87 314.00,43.60"/>
    </edge>
    <edge id=":10649675963_1" function="internal">
        <lane id=":10649675963_1_0" index="0" disallow="tram rail_urban rail rail_electric rail_fast ship" speed="8.33" length="9.41" shape="317.97,45.46 309.28,49.05"/>
    </edge>
    <edge id=":10649675963_2" function="internal">
        <lane id=":10649675963_2_0" index="0" disallow="tram rail_urban rail rail_electric rail_fast ship" speed="8.33" length="9.38" shape="310.51,52.00 319.18,48.43"/>
    </edge>
    <edge id=":10649675963_3" function="internal">
        <lane id=":10649675963_3_0" index="0" allow="pedestrian delivery bicycle" speed="6.95" length="3.07" shape="310.51,52.00 312.76,50.63 313.02,50.27"/>
    </edge>
    <edge id=":10649675963_7" function="internal">
        <lane id=":10649675963_7_0" index="0" allow="pedestrian delivery bicycle" speed="6.95" length="7.11" shape="313.02,50.27 314.10,48.77 314.51,46.42 314.00,43.60"/>
    </edge>
    <edge id=":10649675963_4" function="internal">
        <lane id=":10649675963_4_0" index="0" allow="pedestrian delivery bicycle" speed="5.35" length="5.36" shape="310.95,44.56 311.24,46.10 311.06,47.36 310.41,48.34 309.28,49.05"/>
    </edge>
    <edge id=":10649675963_5" function="internal">
        <lane id=":10649675963_5_0" index="0" allow="pedestrian delivery bicycle" speed="6.80" length="10.57" shape="310.95,44.56 312.22,47.20 314.02,48.73 316.34,49.13 319.18,48.43"/>
    </edge>
    <edge id=":10649675963_6" function="internal">
        <lane id=":10649675963_6_0" index="0" allow="pedestrian delivery bicycle" speed="3.65" length="4.67" shape="310.95,44.56 312.08,45.46 312.96,45.60 313.60,44.98 314.00,43.60"/>
    </edge>
    <edge id=":10649675966_0" function="internal">
        <lane id=":10649675966_0_0" index="0" allow="pedestrian delivery bicycle" speed="3.65" length="4.67" shape="310.03,30.98 308.91,30.08 308.02,29.93 307.38,30.56 306.98,31.94"/>
    </edge>
    <edge id=":10650389717_0" function="internal">
        <lane id=":10650389717_0_0" index="0" disallow="tram rail_urban rail rail_electric rail_fast ship" speed="8.33" length="7.02" shape="115.29,19.67 108.28,19.88"/>
    </edge>
    <edge id=":10650389717_1" function="internal">
        <lane id=":10650389717_1_0" index="0" disallow="tram rail_urban rail rail_electric rail_fast ship" speed="8.33" length="7.05" shape="108.36,23.08 115.41,22.87"/>
    </edge>
    <edge id=":10656297074_0" function="internal">
        <lane id=":10656297074_0_0" index="0" allow="pedestrian delivery bicycle" speed="3.65" length="4.67" shape="25.88,240.32 24.46,240.09 23.62,240.41 23.37,241.27 23.71,242.67"/>
    </edge>
    <edge id=":10693005357_0" function="internal">
        <lane id=":10693005357_0_0" index="0" allow="pedestrian delivery bicycle" speed="3.65" length="4.67" shape="391.49,257.66 390.97,256.32 390.27,255.76 389.41,255.98 388.37,256.98"/>
    </edge>
    <edge id=":10693005360_0" function="internal">
        <lane id=":10693005360_0_0" index="0" allow="pedestrian delivery bicycle" speed="4.93" length="5.13" shape="367.89,194.88 366.61,194.23 365.89,193.35 365.74,192.22 366.14,190.85"/>
    </edge>
    <edge id=":10693005360_1" function="internal">
        <lane id=":10693005360_1_0" index="0" allow="pedestrian delivery bicycle" speed="3.65" length="4.67" shape="367.89,194.88 366.49,195.25 365.86,195.89 365.99,196.77 366.87,197.91"/>
    </edge>
    <edge id=":10693005360_2" function="internal">
        <lane id=":10693005360_2_0" index="0" allow="pedestrian delivery bicycle" speed="5.41" length="5.45" shape="362.22,199.44 362.97,198.34 363.99,197.72 365.29,197.58 366.87,197.91"/>
    </edge>
    <edge id=":10693005360_3" function="internal">
        <lane id=":10693005360_3_0" index="0" disallow="tram rail_urban rail rail_electric rail_fast ship" speed="8.33" length="9.44" shape="362.22,199.44 366.14,190.85"/>
    </edge>
    <edge id=":10693005361_0" function="internal">
        <lane id=":10693005361_0_0" index="0" allow="pedestrian delivery bicycle" speed="3.65" length="4.67" shape="383.54,203.48 384.93,203.10 385.56,202.47 385.44,201.59 384.55,200.45"/>
    </edge>
    <edge id=":10820037871_0" function="internal">
        <lane id=":10820037871_0_0" index="0" allow="pedestrian delivery bicycle" speed="3.65" length="4.67" shape="466.61,39.11 465.58,38.10 464.71,37.88 464.01,38.44 463.48,39.78"/>
    </edge>
    <edge id=":10936978636_0" function="internal">
        <lane id=":10936978636_0_0" index="0" disallow="tram rail_urban rail rail_electric rail_fast ship" speed="8.33" length="4.71" shape="657.11,177.58 655.74,177.60 654.82,177.34 653.91,176.95 652.56,176.57"/>
    </edge>
    <edge id=":10936978636_1" function="internal">
        <lane id=":10936978636_1_0" index="0" allow="bicycle" speed="3.42" length="4.67" width="2.00" shape="652.06,179.12 653.39,178.56 653.94,177.85 653.70,176.99 652.68,175.98"/>
    </edge>
    <edge id=":1306049164_0" function="internal">
        <lane id=":1306049164_0_0" index="0" disallow="tram rail_urban rail rail_electric rail_fast ship" speed="3.65" length="4.67" shape="436.24,173.77 434.88,174.25 434.30,174.93 434.50,175.81 435.47,176.87"/>
    </edge>
    <edge id=":137905289_0" function="internal">
        <lane id=":137905289_0_0" index="0" disallow="tram rail_urban rail rail_electric rail_fast ship" speed="5.94" length="8.19" shape="429.74,16.39 429.15,13.59 428.20,11.74 426.89,10.84 425.23,10.89"/>
    </edge>
    <edge id=":137905289_1" function="internal">
        <lane id=":137905289_1_0" index="0" disallow="tram rail_urban rail rail_electric rail_fast ship" speed="3.65" length="4.67" shape="426.09,13.97 427.03,12.87 427.20,11.99 426.60,11.33 425.23,10.89"/>
    </edge>
    <edge id=":1408679649_0" function="internal">
        <lane id=":1408679649_0_0" index="0" disallow="tram rail_urban rail rail_electric rail_fast ship" speed="7.99" length="14.22" shape="207.52,35.95 206.70,32.14 204.85,29.52 201.98,28.08 198.09,27.83"/>
    </edge>
    <edge id=":1408679649_1" function="internal">
        <lane id=":1408679649_1_0" index="0" disallow="tram rail_urban rail rail_electric rail_fast ship" speed="6.49" length="9.03" shape="198.34,31.02 200.81,31.18 202.63,32.09 203.81,33.76 204.33,36.18"/>
    </edge>
    <edge id=":1408679654_0" function="internal">
        <lane id=":1408679654_0_0" index="0" disallow="tram rail_urban rail rail_electric rail_fast ship" speed="3.65" length="4.67" shape="99.46,20.11 98.28,20.94 97.90,21.75 98.32,22.53 99.54,23.30"/>
    </edge>
    <edge id=":1420459582_0" function="internal">
        <lane id=":1420459582_0_0" index="0" disallow="tram rail_urban rail rail_electric rail_fast ship" speed="8.33" length="14.63" shape="446.44,242.70 445.62,246.31 444.72,249.82 443.69,253.29 442.46,256.76"/>
    </edge>
    <edge id=":1420459582_1" function="internal">
        <lane id=":1420459582_1_0" index="0" disallow="tram rail_urban rail rail_electric rail_fast ship" speed="7.43" length="16.51" shape="446.44,242.70 446.03,247.60 447.38,250.66 450.49,251.87 455.36,251.25"/>
    </edge>
    <edge id=":1420459582_2" function="internal">
        <lane id=":1420459582_2_0" index="0" disallow="tram rail_urban rail rail_electric rail_fast ship" speed="3.65" length="4.67" shape="446.44,242.70 446.96,244.05 447.66,244.61 448.52,244.40 449.56,243.40"/>
    </edge>
    <edge id=":1420459582_3" function="internal">
        <lane id=":1420459582_3_0" index="0" disallow="tram rail_urban rail rail_electric rail_fast ship" speed="5.72" length="9.20" shape="454.54,248.16 451.82,248.51 450.09,247.83 449.33,246.13 449.56,243.40"/>
    </edge>
    <edge id=":1420459582_4" function="internal">
        <lane id=":1420459582_4_0" index="0" disallow="tram rail_urban rail rail_electric rail_fast ship" speed="8.33" length="15.36" shape="454.54,248.16 450.13,249.68 446.64,251.62 444.09,253.98 442.46,256.76"/>
    </edge>
    <edge id=":1420459582_5" function="internal">
        <lane id=":1420459582_5_0" index="0" disallow="tram rail_urban rail rail_electric rail_fast ship" speed="3.65" length="4.67" shape="454.54,248.16 453.58,249.24 453.40,250.12 454.00,250.79 455.36,251.25"/>
    </edge>
    <edge id=":1420459582_6" function="internal">
        <lane id=":1420459582_6_0" index="0" disallow="tram rail_urban rail rail_electric rail_fast ship" speed="8.33" length="12.37" shape="445.44,257.93 446.71,255.83 448.79,254.02 451.68,252.49 455.36,251.25"/>
    </edge>
    <edge id=":1420459582_7" function="internal">
        <lane id=":1420459582_7_0" index="0" disallow="tram rail_urban rail rail_electric rail_fast ship" speed="8.33" length="15.12" shape="445.44,257.93 446.70,254.38 447.78,250.75 448.72,247.07 449.56,243.40"/>
    </edge>
    <edge id=":1420459582_8" function="internal">
        <lane id=":1420459582_8_0" index="0" disallow="tram rail_urban rail rail_electric rail_fast ship" speed="3.65" length="4.67" shape="445.44,257.93 445.13,256.52 444.53,255.85 443.64,255.94 442.46,256.76"/>
    </edge>
    <edge id=":1420459583_0" function="internal">
        <lane id=":1420459583_0_0" index="0" disallow="tram rail_urban rail rail_electric rail_fast ship" speed="8.33" length="14.26" shape="434.95,276.03 429.31,289.13"/>
    </edge>
    <edge id=":1420459583_1" function="internal">
        <lane id=":1420459583_1_0" index="0" disallow="tram rail_urban rail rail_electric rail_fast ship" speed="7.63" length="15.22" shape="434.95,276.03 433.97,280.24 434.70,283.44 437.16,285.61 441.33,286.76"/>
    </edge>
    <edge id=":1420459583_2" function="internal">
        <lane id=":1420459583_2_0" index="0" disallow="tram rail_urban rail rail_electric rail_fast ship" speed="3.65" length="4.67" shape="434.95,276.03 435.26,277.44 435.86,278.10 436.75,278.02 437.93,277.19"/>
    </edge>
    <edge id=":1420459583_3" function="internal">
        <lane id=":1420459583_3_0" index="0" disallow="tram rail_urban rail rail_electric rail_fast ship" speed="6.04" length="9.07" shape="441.73,283.59 439.25,282.90 437.78,281.61 437.34,279.70 437.93,277.19"/>
    </edge>
    <edge id=":1420459583_4" function="internal">
        <lane id=":1420459583_4_0" index="0" disallow="tram rail_urban rail rail_electric rail_fast ship" speed="8.33" length="14.61" shape="441.73,283.59 437.52,283.50 434.04,284.39 431.31,286.27 429.31,289.13"/>
    </edge>
    <edge id=":1420459583_5" function="internal">
        <lane id=":1420459583_5_0" index="0" disallow="tram rail_urban rail rail_electric rail_fast ship" speed="3.65" length="4.67" shape="441.73,283.59 440.44,284.23 439.94,284.97 440.24,285.82 441.33,286.76"/>
    </edge>
    <edge id=":1420459583_6" function="internal">
        <lane id=":1420459583_6_0" index="0" disallow="tram rail_urban rail rail_electric rail_fast ship" speed="7.97" length="10.60" shape="432.19,290.52 433.61,288.55 435.60,287.26 438.17,286.67 441.33,286.76"/>
    </edge>
    <edge id=":1420459583_7" function="internal">
        <lane id=":1420459583_7_0" index="0" disallow="tram rail_urban rail rail_electric rail_fast ship" speed="8.33" length="14.51" shape="432.19,290.52 437.93,277.19"/>
    </edge>
    <edge id=":1420459583_8" function="internal">
        <lane id=":1420459583_8_0" index="0" disallow="tram rail_urban rail rail_electric rail_fast ship" speed="3.65" length="4.67" shape="432.19,290.52 432.00,289.09 431.45,288.39 430.56,288.40 429.31,289.13"/>
    </edge>
    <edge id=":1420459585_0" function="internal">
        <lane id=":1420459585_0_0" index="0" disallow="tram rail_urban rail rail_electric rail_fast ship" speed="6.32" length="9.04" shape="319.60,311.03 317.37,309.89 316.10,308.32 315.81,306.33 316.49,303.92"/>
    </edge>
    <edge id=":1420459585_1" function="internal">
        <lane id=":1420459585_1_0" index="0" disallow="tram rail_urban rail rail_electric rail_fast ship" speed="3.65" length="4.67" shape="319.60,311.03 318.21,311.40 317.57,312.03 317.69,312.91 318.57,314.06"/>
    </edge>
    <edge id=":1420459585_2" function="internal">
        <lane id=":1420459585_2_0" index="0" disallow="tram rail_urban rail rail_electric rail_fast ship" speed="6.92" length="9.53" shape="310.57,317.06 311.92,315.01 313.71,313.83 315.92,313.51 318.57,314.06"/>
    </edge>
    <edge id=":1420459585_3" function="internal">
        <lane id=":1420459585_3_0" index="0" disallow="tram rail_urban rail rail_electric rail_fast ship" speed="8.33" length="14.41" shape="310.57,317.06 316.49,303.92"/>
    </edge>
    <edge id=":1420459909_0" function="internal">
        <lane id=":1420459909_0_0" index="0" disallow="tram rail_urban rail rail_electric rail_fast ship" speed="6.68" length="9.00" shape="503.55,207.61 502.99,209.95 501.81,211.62 499.99,212.61 497.53,212.92"/>
    </edge>
    <edge id=":1420459909_1" function="internal">
        <lane id=":1420459909_1_0" index="0" disallow="tram rail_urban rail rail_electric rail_fast ship" speed="13.89" length="13.89" shape="503.55,207.61 503.20,211.76 503.03,214.61 503.00,217.47 503.05,221.64"/>
        <lane id=":1420459909_1_1" index="1" disallow="tram rail_urban rail rail_electric rail_fast ship" speed="13.89" length="13.89" shape="506.73,207.88 506.39,211.94 506.23,214.73 506.20,217.52 506.25,221.59"/>
    </edge>
    <edge id=":1420459909_3" function="internal">
        <lane id=":1420459909_3_0" index="0" disallow="tram rail_urban rail rail_electric rail_fast ship" speed="6.51" length="8.88" shape="497.50,216.12 499.90,216.48 501.62,217.53 502.67,219.24 503.05,221.64"/>
    </edge>
    <edge id=":1420459909_4" function="internal">
        <lane id=":1420459909_4_0" index="0" disallow="tram rail_urban rail rail_electric rail_fast ship" speed="3.65" length="4.67" shape="497.50,216.12 498.71,215.33 499.12,214.54 498.72,213.73 497.53,212.92"/>
    </edge>
    <edge id=":1426048870_0" function="internal">
        <lane id=":1426048870_0_0" index="0" disallow="tram rail_urban rail rail_electric rail_fast ship" speed="3.65" length="4.67" shape="6.08,14.82 4.64,14.74 3.84,15.15 3.69,16.03 4.17,17.39"/>
    </edge>
    <edge id=":1426048886_0" function="internal">
        <lane id=":1426048886_0_0" index="0" allow="pedestrian delivery bicycle" speed="5.03" length="5.01" shape="423.38,57.47 422.11,56.93 421.32,56.12 421.02,55.03 421.19,53.66"/>
    </edge>
    <edge id=":1426048886_1" function="internal">
        <lane id=":1426048886_1_0" index="0" allow="pedestrian delivery bicycle" speed="3.65" length="4.67" shape="423.38,57.47 422.01,57.93 421.42,58.61 421.61,59.48 422.56,60.56"/>
    </edge>
    <edge id=":1426048886_2" function="internal">
        <lane id=":1426048886_2_0" index="0" allow="pedestrian delivery bicycle" speed="5.30" length="5.19" shape="418.32,62.46 418.97,61.31 419.90,60.61 421.10,60.36 422.56,60.56"/>
    </edge>
    <edge id=":1426048886_3" function="internal">
        <lane id=":1426048886_3_0" index="0" disallow="tram rail_urban rail rail_electric rail_fast ship" speed="8.33" length="9.26" shape="418.32,62.46 419.29,59.89 419.91,58.11 420.45,56.31 421.19,53.66"/>
    </edge>
    <edge id=":1426048890_0" function="internal">
        <lane id=":1426048890_0_0" index="0" disallow="tram rail_urban rail rail_electric rail_fast ship" speed="8.33" length="8.34" shape="68.42,59.83 66.13,58.89 64.60,58.17 63.16,57.27 61.16,55.82"/>
    </edge>
    <edge id=":1426048890_1" function="internal">
        <lane id=":1426048890_1_0" index="0" disallow="tram rail_urban rail rail_electric rail_fast ship" speed="6.98" length="10.36" shape="68.42,59.83 66.33,59.51 64.39,60.33 62.59,62.27 60.94,65.35"/>
    </edge>
    <edge id=":1426048890_2" function="internal">
        <lane id=":1426048890_2_0" index="0" disallow="tram rail_urban rail rail_electric rail_fast ship" speed="3.65" length="4.67" shape="68.42,59.83 67.01,60.12 66.33,60.71 66.40,61.60 67.21,62.79"/>
    </edge>
    <edge id=":1426048890_3" function="internal">
        <lane id=":1426048890_3_0" index="0" disallow="tram rail_urban rail rail_electric rail_fast ship" speed="6.65" length="7.81" shape="59.25,58.39 60.69,59.82 61.45,61.45 61.53,63.30 60.94,65.35"/>
    </edge>
    <edge id=":1426048890_4" function="internal">
        <lane id=":1426048890_4_0" index="0" disallow="tram rail_urban rail rail_electric rail_fast ship" speed="8.33" length="9.15" shape="59.25,58.39 61.44,59.98 63.02,60.97 64.70,61.76 67.21,62.79"/>
    </edge>
    <edge id=":1426048890_5" function="internal">
        <lane id=":1426048890_5_0" index="0" disallow="tram rail_urban rail rail_electric rail_fast ship" speed="3.65" length="4.67" shape="59.25,58.39 60.69,58.46 61.48,58.06 61.64,57.18 61.16,55.82"/>
    </edge>
    <edge id=":1426048909_0" function="internal">
        <lane id=":1426048909_0_0" index="0" disallow="tram rail_urban rail rail_electric rail_fast ship" speed="3.65" length="4.67" shape="206.46,105.37 206.04,104.00 205.39,103.38 204.51,103.54 203.40,104.46"/>
    </edge>
    <edge id=":1426048930_0" function="internal">
        <lane id=":1426048930_0_0" index="0" disallow="tram rail_urban rail rail_electric rail_fast ship" speed="8.33" length="9.26" shape="125.42,129.02 124.71,131.67 124.18,133.48 123.57,135.26 122.63,137.84"/>
    </edge>
    <edge id=":1426048930_1" function="internal">
        <lane id=":1426048930_1_0" index="0" disallow="tram rail_urban rail rail_electric rail_fast ship" speed="6.19" length="7.66" shape="125.42,129.02 124.89,131.70 124.91,133.75 125.47,135.16 126.58,135.95"/>
    </edge>
    <edge id=":1426048930_2" function="internal">
        <lane id=":1426048930_2_0" index="0" disallow="tram rail_urban rail rail_electric rail_fast ship" speed="6.11" length="7.68" shape="127.60,132.92 126.24,132.87 124.95,133.67 123.75,135.33 122.63,137.84"/>
    </edge>
    <edge id=":1426048930_3" function="internal">
        <lane id=":1426048930_3_0" index="0" disallow="tram rail_urban rail rail_electric rail_fast ship" speed="3.65" length="4.67" shape="127.60,132.92 126.21,133.29 125.58,133.92 125.70,134.80 126.58,135.95"/>
    </edge>
    <edge id=":1426048933_0" function="internal">
        <lane id=":1426048933_0_0" index="0" allow="pedestrian delivery bicycle" speed="4.94" length="5.12" shape="389.59,147.32 388.28,146.76 387.51,145.93 387.28,144.81 387.59,143.42"/>
    </edge>
    <edge id=":1426048933_1" function="internal">
        <lane id=":1426048933_1_0" index="0" disallow="tram rail_urban rail rail_electric rail_fast ship" speed="8.33" length="6.12" shape="385.25,149.07 387.59,143.42"/>
    </edge>
    <edge id=":1426048935_0" function="internal">
        <lane id=":1426048935_0_0" index="0" disallow="tram rail_urban rail rail_electric rail_fast ship" speed="3.65" length="4.67" shape="455.34,158.89 454.68,157.61 453.94,157.11 453.10,157.42 452.16,158.51"/>
    </edge>
    <edge id=":1426048941_0" function="internal">
        <lane id=":1426048941_0_0" index="0" disallow="tram rail_urban rail rail_electric rail_fast ship" speed="6.45" length="9.03" shape="118.82,148.16 117.64,150.35 116.05,151.61 114.05,151.95 111.63,151.37"/>
    </edge>
    <edge id=":1426048941_1" function="internal">
        <lane id=":1426048941_1_0" index="0" disallow="tram rail_urban rail rail_electric rail_fast ship" speed="8.33" length="11.16" shape="118.82,148.16 115.12,158.68"/>
    </edge>
    <edge id=":1426048942_0" function="internal">
        <lane id=":1426048942_0_0" index="0" disallow="tram rail_urban rail rail_electric rail_fast ship" speed="6.47" length="9.03" shape="190.20,147.93 189.14,150.18 187.62,151.53 185.64,151.99 183.19,151.56"/>
    </edge>
    <edge id=":1426048942_1" function="internal">
        <lane id=":1426048942_1_0" index="0" disallow="tram rail_urban rail rail_electric rail_fast ship" speed="8.33" length="14.42" shape="190.20,147.93 185.86,161.69"/>
    </edge>
    <edge id=":1426048942_2" function="internal">
        <lane id=":1426048942_2_0" index="0" disallow="tram rail_urban rail rail_electric rail_fast ship" speed="8.04" length="14.24" shape="190.20,147.93 189.58,151.80 190.34,154.93 192.46,157.35 195.96,159.04"/>
    </edge>
    <edge id=":1426048942_3" function="internal">
        <lane id=":1426048942_3_0" index="0" disallow="tram rail_urban rail rail_electric rail_fast ship" speed="3.65" length="4.67" shape="190.20,147.93 190.61,149.32 191.26,149.93 192.14,149.79 193.26,148.88"/>
    </edge>
    <edge id=":1426048942_4" function="internal">
        <lane id=":1426048942_4_0" index="0" disallow="tram rail_urban rail rail_electric rail_fast ship" speed="6.55" length="9.11" shape="196.92,155.99 194.69,154.91 193.34,153.36 192.86,151.35 193.26,148.88"/>
    </edge>
    <edge id=":1426048942_5" function="internal">
        <lane id=":1426048942_5_0" index="0" disallow="tram rail_urban rail rail_electric rail_fast ship" speed="8.33" length="14.43" shape="196.92,155.99 183.19,151.56"/>
    </edge>
    <edge id=":1426048942_6" function="internal">
        <lane id=":1426048942_6_0" index="0" disallow="tram rail_urban rail rail_electric rail_fast ship" speed="8.01" length="14.18" shape="196.92,155.99 193.10,155.35 189.98,156.08 187.57,158.20 185.86,161.69"/>
    </edge>
    <edge id=":1426048942_7" function="internal">
        <lane id=":1426048942_7_0" index="0" disallow="tram rail_urban rail rail_electric rail_fast ship" speed="3.65" length="4.67" shape="196.92,155.99 195.54,156.39 194.92,157.03 195.05,157.91 195.96,159.04"/>
    </edge>
    <edge id=":1426048942_8" function="internal">
        <lane id=":1426048942_8_0" index="0" disallow="tram rail_urban rail rail_electric rail_fast ship" speed="6.52" length="9.03" shape="188.91,162.67 189.99,160.44 191.53,159.10 193.52,158.63 195.96,159.04"/>
    </edge>
    <edge id=":1426048942_9" function="internal">
        <lane id=":1426048942_9_0" index="0" disallow="tram rail_urban rail rail_electric rail_fast ship" speed="8.33" length="14.46" shape="188.91,162.67 193.26,148.88"/>
    </edge>
    <edge id=":1426048942_10" function="internal">
        <lane id=":1426048942_10_0" index="0" disallow="tram rail_urban rail rail_electric rail_fast ship" speed="8.02" length="14.23" shape="188.91,162.67 189.56,158.84 188.83,155.71 186.70,153.29 183.19,151.56"/>
    </edge>
    <edge id=":1426048942_11" function="internal">
        <lane id=":1426048942_11_0" index="0" disallow="tram rail_urban rail rail_electric rail_fast ship" speed="3.65" length="4.67" shape="188.91,162.67 188.52,161.28 187.88,160.65 186.99,160.79 185.86,161.69"/>
    </edge>
    <edge id=":1426048942_12" function="internal">
        <lane id=":1426048942_12_0" index="0" disallow="tram rail_urban rail rail_electric rail_fast ship" speed="6.54" length="9.09" shape="182.20,154.60 184.45,155.71 185.81,157.25 186.28,159.25 185.86,161.69"/>
    </edge>
    <edge id=":1426048942_13" function="internal">
        <lane id=":1426048942_13_0" index="0" disallow="tram rail_urban rail rail_electric rail_fast ship" speed="8.33" length="14.45" shape="182.20,154.60 195.96,159.04"/>
    </edge>
    <edge id=":1426048942_14" function="internal">
        <lane id=":1426048942_14_0" index="0" disallow="tram rail_urban rail rail_electric rail_fast ship" speed="7.97" length="14.26" shape="182.20,154.60 186.06,155.28 189.18,154.55 191.59,152.42 193.26,148.88"/>
    </edge>