<?xml version="1.0" encoding="UTF-8"?>

<!-- generated on 2023-11-21 16:16:42 by Eclipse SUMO netconvert Version 1.18.0
<configuration xmlns:xsi="http://www.w3.org/2001/XMLSchema-instance" xsi:noNamespaceSchemaLocation="http://sumo.dlr.de/xsd/netconvertConfiguration.xsd">

    <input>
        <type-files value="./config/osmNetconvert.typ.xml,./config/osmNetconvertUrbanDe.typ.xml"/>
        <osm-files value="data/202311211616/graph202311211616.osm"/>
    </input>

    <output>
        <output-file value="data/202311211616/graph202311211616.net.xml"/>
        <output.original-names value="true"/>
    </output>

    <projection>
        <proj.utm value="true"/>
    </projection>

    <processing>
        <geometry.remove value="true"/>
        <lefthand value="true"/>
    </processing>

    <tls_building>
        <tls.discard-simple value="true"/>
        <tls.join value="true"/>
        <tls.ignore-internal-junction-jam value="true"/>
        <tls.guess-signals value="true"/>
    </tls_building>

    <ramp_guessing>
        <ramps.guess value="true"/>
    </ramp_guessing>

    <junctions>
        <junctions.join value="true"/>
    </junctions>

</configuration>
-->

<net version="1.16" junctionCornerDetail="5" lefthand="true" limitTurnSpeed="5.50" tlsIgnoreInternalJunctionJam="1" xmlns:xsi="http://www.w3.org/2001/XMLSchema-instance" xsi:noNamespaceSchemaLocation="http://sumo.dlr.de/xsd/net_file.xsd">

    <location netOffset="-681558.20,-5914335.45" convBoundary="0.00,-0.00,380.58,221.89" origBoundary="-6.272297,53.346933,-6.266600,53.348945" projParameter="+proj=utm +zone=29 +ellps=WGS84 +datum=WGS84 +units=m +no_defs"/>

    <type id="highway.footway" priority="1" numLanes="1" speed="2.78" allow="pedestrian" oneway="1" width="2.00"/>
    <type id="highway.pedestrian" priority="1" numLanes="1" speed="2.78" allow="pedestrian" oneway="1" width="2.00"/>
    <type id="highway.residential" priority="3" numLanes="1" speed="13.89" disallow="tram rail_urban rail rail_electric rail_fast ship" oneway="0"/>
    <type id="highway.service" priority="1" numLanes="1" speed="5.56" allow="pedestrian delivery bicycle" oneway="0"/>
    <type id="highway.unclassified" priority="4" numLanes="1" speed="13.89" disallow="tram rail_urban rail rail_electric rail_fast ship" oneway="0"/>

    <edge id=":10249513879_0" function="internal">
        <lane id=":10249513879_0_0" index="0" allow="pedestrian delivery bicycle" speed="3.65" length="4.67" shape="27.88,63.39 28.39,64.74 29.08,65.31 29.94,65.10 31.00,64.11"/>
    </edge>
    <edge id=":10249513880_0" function="internal">
        <lane id=":10249513880_0_0" index="0" allow="pedestrian delivery bicycle" speed="5.56" length="9.39" shape="39.47,40.81 30.27,38.91"/>
    </edge>
    <edge id=":10249513880_1" function="internal">
        <lane id=":10249513880_1_0" index="0" allow="pedestrian delivery bicycle" speed="5.56" length="10.16" shape="39.47,40.81 36.73,40.65 34.57,41.42 32.99,43.12 31.98,45.74"/>
    </edge>
    <edge id=":10249513880_2" function="internal">
        <lane id=":10249513880_2_0" index="0" allow="pedestrian delivery bicycle" speed="3.65" length="4.67" shape="39.47,40.81 38.13,41.35 37.58,42.06 37.81,42.92 38.82,43.95"/>
    </edge>
    <edge id=":10249513880_3" function="internal">
        <lane id=":10249513880_3_0" index="0" allow="pedestrian delivery bicycle" speed="5.12" length="5.10" shape="35.10,46.46 35.60,45.13 36.39,44.27 37.47,43.87 38.82,43.95"/>
    </edge>
    <edge id=":10249513880_4" function="internal">
        <lane id=":10249513880_4_0" index="0" allow="pedestrian delivery bicycle" speed="5.56" length="10.27" shape="35.10,46.46 35.34,43.65 34.62,41.45 32.93,39.87 30.27,38.91"/>
    </edge>
    <edge id=":10249513880_5" function="internal">
        <lane id=":10249513880_5_0" index="0" allow="pedestrian delivery bicycle" speed="3.65" length="4.67" shape="35.10,46.46 34.59,45.11 33.90,44.54 33.03,44.75 31.98,45.74"/>
    </edge>
    <edge id=":10249513880_6" function="internal">
        <lane id=":10249513880_6_0" index="0" allow="pedestrian delivery bicycle" speed="5.02" length="5.03" shape="29.62,42.04 30.92,42.52 31.75,43.29 32.10,44.36 31.98,45.74"/>
    </edge>
    <edge id=":10249513880_7" function="internal">
        <lane id=":10249513880_7_0" index="0" allow="pedestrian delivery bicycle" speed="5.56" length="9.40" shape="29.62,42.04 38.82,43.95"/>
    </edge>
    <edge id=":10249513880_8" function="internal">
        <lane id=":10249513880_8_0" index="0" allow="pedestrian delivery bicycle" speed="3.65" length="4.67" shape="29.62,42.04 30.96,41.51 31.51,40.80 31.29,39.94 30.27,38.91"/>
    </edge>
    <edge id=":10249513881_0" function="internal">
        <lane id=":10249513881_0_0" index="0" allow="pedestrian delivery bicycle" speed="3.65" length="4.67" shape="8.10,34.29 6.77,34.83 6.21,35.53 6.44,36.40 7.45,37.43"/>
    </edge>
    <edge id=":10249513882_0" function="internal">
        <lane id=":10249513882_0_0" index="0" disallow="tram rail_urban rail rail_electric rail_fast ship" speed="8.33" length="9.40" shape="48.92,49.22 51.00,40.05"/>
    </edge>
    <edge id=":10249513882_1" function="internal">
        <lane id=":10249513882_1_0" index="0" allow="pedestrian delivery bicycle" speed="6.06" length="7.81" shape="48.92,49.22 49.33,46.47 49.18,44.42 48.47,43.06 47.18,42.40"/>
    </edge>
    <edge id=":10249513882_2" function="internal">
        <lane id=":10249513882_2_0" index="0" allow="pedestrian delivery bicycle" speed="6.14" length="7.79" shape="46.54,45.53 47.97,45.42 49.19,44.48 50.20,42.68 51.00,40.05"/>
    </edge>
    <edge id=":10249513882_3" function="internal">
        <lane id=":10249513882_3_0" index="0" allow="pedestrian delivery bicycle" speed="3.65" length="4.67" shape="46.54,45.53 47.88,44.99 48.43,44.28 48.20,43.42 47.18,42.40"/>
    </edge>
    <edge id=":10249513895_0" function="internal">
        <lane id=":10249513895_0_0" index="0" allow="pedestrian delivery bicycle" speed="3.65" length="4.67" shape="17.31,118.07 17.88,119.40 18.59,119.94 19.45,119.69 20.46,118.66"/>
    </edge>
    <edge id=":10249513901_0" function="internal">
        <lane id=":10249513901_0_0" index="0" allow="pedestrian delivery bicycle" speed="3.71" length="4.64" shape="16.61,69.48 15.81,68.29 15.01,67.89 14.22,68.29 13.43,69.49"/>
    </edge>
    <edge id=":12649678_0" function="internal">
        <lane id=":12649678_0_0" index="0" disallow="tram rail_urban rail rail_electric rail_fast ship" speed="7.28" length="10.71" shape="37.73,131.67 34.75,130.33 32.81,128.59 31.88,126.47 31.99,123.95"/>
    </edge>
    <edge id=":12649678_1" function="internal">
        <lane id=":12649678_1_0" index="0" disallow="tram rail_urban rail rail_electric rail_fast ship" speed="8.33" length="14.93" shape="37.73,131.67 34.16,130.56 30.57,129.54 26.96,128.63 23.31,127.81"/>
    </edge>
    <edge id=":12649678_2" function="internal">
        <lane id=":12649678_2_0" index="0" disallow="tram rail_urban rail rail_electric rail_fast ship" speed="8.10" length="14.50" shape="37.73,131.67 33.90,131.02 30.74,131.79 28.27,134.00 26.48,137.64"/>
    </edge>
    <edge id=":12649678_3" function="internal">
        <lane id=":12649678_3_0" index="0" disallow="tram rail_urban rail rail_electric rail_fast ship" speed="3.65" length="4.67" shape="37.73,131.67 36.34,132.06 35.71,132.69 35.84,133.58 36.73,134.71"/>
    </edge>
    <edge id=":12649678_4" function="internal">
        <lane id=":12649678_4_0" index="0" disallow="tram rail_urban rail rail_electric rail_fast ship" speed="6.62" length="9.36" shape="29.51,138.65 30.68,136.27 32.27,134.82 34.28,134.30 36.73,134.71"/>
    </edge>
    <edge id=":12649678_5" function="internal">
        <lane id=":12649678_5_0" index="0" disallow="tram rail_urban rail rail_electric rail_fast ship" speed="8.33" length="14.93" shape="29.51,138.65 30.41,135.04 30.93,131.35 31.36,127.63 31.99,123.95"/>
    </edge>
    <edge id=":12649678_6" function="internal">
        <lane id=":12649678_6_0" index="0" disallow="tram rail_urban rail rail_electric rail_fast ship" speed="7.81" length="14.64" shape="29.51,138.65 30.24,134.64 29.45,131.49 27.14,129.22 23.31,127.81"/>
    </edge>
    <edge id=":12649678_7" function="internal">
        <lane id=":12649678_7_0" index="0" disallow="tram rail_urban rail rail_electric rail_fast ship" speed="3.65" length="4.67" shape="29.51,138.65 29.13,137.26 28.50,136.63 27.62,136.75 26.48,137.64"/>
    </edge>
    <edge id=":12649678_8" function="internal">
        <lane id=":12649678_8_0" index="0" disallow="tram rail_urban rail rail_electric rail_fast ship" speed="6.27" length="9.04" shape="22.65,130.94 25.01,131.81 26.44,133.21 26.93,135.16 26.48,137.64"/>
    </edge>
    <edge id=":12649678_9" function="internal">
        <lane id=":12649678_9_0" index="0" disallow="tram rail_urban rail rail_electric rail_fast ship" speed="8.33" length="14.58" shape="22.65,130.94 26.24,131.75 29.74,132.63 33.21,133.61 36.73,134.71"/>
    </edge>
    <edge id=":12649678_10" function="internal">
        <lane id=":12649678_10_0" index="0" disallow="tram rail_urban rail rail_electric rail_fast ship" speed="7.79" length="13.24" shape="22.65,130.94 26.01,131.09 28.68,129.98 30.68,127.59 31.99,123.95"/>
    </edge>
    <edge id=":12649678_11" function="internal">
        <lane id=":12649678_11_0" index="0" disallow="tram rail_urban rail rail_electric rail_fast ship" speed="3.65" length="4.67" shape="22.65,130.94 23.99,130.41 24.54,129.71 24.32,128.84 23.31,127.81"/>
    </edge>
    <edge id=":1396845249_0" function="internal">
        <lane id=":1396845249_0_0" index="0" disallow="tram rail_urban rail rail_electric rail_fast ship" speed="6.52" length="8.68" shape="130.79,140.03 130.22,142.32 129.06,143.93 127.31,144.84 124.96,145.06"/>
    </edge>
    <edge id=":1396845249_1" function="internal">
        <lane id=":1396845249_1_0" index="0" disallow="tram rail_urban rail rail_electric rail_fast ship" speed="8.33" length="17.96" shape="130.79,140.03 131.36,143.21 133.78,145.89 138.04,148.07 144.15,149.74"/>
    </edge>
    <edge id=":1396845249_2" function="internal">
        <lane id=":1396845249_2_0" index="0" disallow="tram rail_urban rail rail_electric rail_fast ship" speed="8.33" length="19.41" shape="124.81,148.26 129.25,148.45 134.52,148.71 139.76,149.13 144.15,149.74"/>
    </edge>
    <edge id=":1396845249_3" function="internal">
        <lane id=":1396845249_3_0" index="0" disallow="tram rail_urban rail rail_electric rail_fast ship" speed="3.65" length="4.67" shape="124.81,148.26 126.05,147.51 126.48,146.73 126.12,145.92 124.96,145.06"/>
    </edge>
    <edge id=":26868029_0" function="internal">
        <lane id=":26868029_0_0" index="0" allow="pedestrian delivery bicycle" speed="3.65" length="4.67" shape="282.29,187.50 282.76,188.86 283.43,189.45 284.30,189.27 285.38,188.32"/>
    </edge>
    <edge id=":2711634122_0" function="internal">
        <lane id=":2711634122_0_0" index="0" allow="pedestrian delivery bicycle" speed="5.06" length="5.03" shape="91.48,17.40 90.99,18.70 90.21,19.53 89.14,19.90 87.77,19.80"/>
    </edge>
    <edge id=":2711634122_1" function="internal">
        <lane id=":2711634122_1_0" index="0" allow="pedestrian delivery bicycle" speed="5.56" length="10.21" shape="91.48,17.40 91.26,20.20 91.99,22.38 93.66,23.96 96.29,24.93"/>
    </edge>
    <edge id=":2711634122_2" function="internal">
        <lane id=":2711634122_2_0" index="0" allow="pedestrian delivery bicycle" speed="3.65" length="4.67" shape="91.48,17.40 92.00,18.75 92.69,19.32 93.56,19.10 94.61,18.11"/>
    </edge>
    <edge id=":2711634122_3" function="internal">
        <lane id=":2711634122_3_0" index="0" allow="pedestrian delivery bicycle" speed="5.03" length="5.01" shape="96.96,21.81 95.67,21.33 94.85,20.55 94.50,19.48 94.61,18.11"/>
    </edge>
    <edge id=":2711634122_4" function="internal">
        <lane id=":2711634122_4_0" index="0" allow="pedestrian delivery bicycle" speed="5.56" length="9.41" shape="96.96,21.81 87.77,19.80"/>
    </edge>
    <edge id=":2711634122_5" function="internal">
        <lane id=":2711634122_5_0" index="0" allow="pedestrian delivery bicycle" speed="3.65" length="4.67" shape="96.96,21.81 95.62,22.33 95.06,23.03 95.29,23.90 96.29,24.93"/>
    </edge>
    <edge id=":2711634122_6" function="internal">
        <lane id=":2711634122_6_0" index="0" allow="pedestrian delivery bicycle" speed="5.56" length="9.43" shape="87.08,22.92 96.29,24.93"/>
    </edge>
    <edge id=":2711634122_7" function="internal">
        <lane id=":2711634122_7_0" index="0" allow="pedestrian delivery bicycle" speed="5.56" length="10.18" shape="87.08,22.92 89.85,23.13 92.03,22.40 93.61,20.72 94.61,18.11"/>
    </edge>
    <edge id=":2711634122_8" function="internal">
        <lane id=":2711634122_8_0" index="0" allow="pedestrian delivery bicycle" speed="3.65" length="4.67" shape="87.08,22.92 88.43,22.40 88.99,21.71 88.77,20.84 87.77,19.80"/>
    </edge>
    <edge id=":3451159937_0" function="internal">
        <lane id=":3451159937_0_0" index="0" disallow="tram rail_urban rail rail_electric rail_fast ship" speed="8.33" length="9.80" shape="141.73,14.17 141.61,17.05 141.93,19.03 142.29,21.02 142.28,23.91"/>
    </edge>
    <edge id=":3451159937_1" function="internal">
        <lane id=":3451159937_1_0" index="0" disallow="tram rail_urban rail rail_electric rail_fast ship" speed="6.39" length="7.79" shape="141.73,14.17 141.75,16.57 142.50,17.86 143.98,18.03 146.19,17.09"/>
    </edge>
    <edge id=":3451159937_2" function="internal">
        <lane id=":3451159937_2_0" index="0" disallow="tram rail_urban rail rail_electric rail_fast ship" speed="7.09" length="9.90" shape="135.99,17.55 138.90,18.48 140.93,19.85 142.05,21.66 142.28,23.91"/>
    </edge>
    <edge id=":3451159937_3" function="internal">
        <lane id=":3451159937_3_0" index="0" disallow="tram rail_urban rail rail_electric rail_fast ship" speed="8.33" length="10.34" shape="135.99,17.55 138.97,17.73 141.11,17.22 143.25,16.76 146.19,17.09"/>
    </edge>
    <edge id=":3451159939_0" function="internal">
        <lane id=":3451159939_0_0" index="0" allow="pedestrian delivery bicycle" speed="5.06" length="5.00" shape="95.93,12.25 96.42,10.97 97.20,10.15 98.26,9.78 99.62,9.87"/>
    </edge>
    <edge id=":3451159939_1" function="internal">
        <lane id=":3451159939_1_0" index="0" allow="pedestrian delivery bicycle" speed="3.65" length="4.67" shape="95.93,12.25 95.42,10.91 94.72,10.34 93.85,10.55 92.81,11.55"/>
    </edge>
    <edge id=":3451159939_2" function="internal">
        <lane id=":3451159939_2_0" index="0" allow="pedestrian delivery bicycle" speed="5.05" length="4.99" shape="90.49,7.83 91.76,8.33 92.57,9.11 92.92,10.18 92.81,11.55"/>
    </edge>
    <edge id=":3451159939_3" function="internal">
        <lane id=":3451159939_3_0" index="0" disallow="tram rail_urban rail rail_electric rail_fast ship" speed="8.33" length="9.36" shape="90.49,7.83 99.62,9.87"/>
    </edge>
    <edge id=":4043189650_0" function="internal">
        <lane id=":4043189650_0_0" index="0" disallow="tram rail_urban rail rail_electric rail_fast ship" speed="6.49" length="9.03" shape="58.73,6.13 59.61,3.81 61.03,2.34 62.97,1.72 65.44,1.94"/>
    </edge>
    <edge id=":4043189650_1" function="internal">
        <lane id=":4043189650_1_0" index="0" disallow="tram rail_urban rail rail_electric rail_fast ship" speed="8.33" length="9.62" shape="56.09,-0.33 65.44,1.94"/>
    </edge>
    <edge id=":4043189655_0" function="internal">
        <lane id=":4043189655_0_0" index="0" disallow="tram rail_urban rail rail_electric rail_fast ship" speed="8.33" length="6.80" shape="272.05,49.87 270.05,49.58 268.69,49.33 267.35,49.00 265.41,48.46"/>
    </edge>
    <edge id=":411193759_0" function="internal">
        <lane id=":411193759_0_0" index="0" disallow="tram rail_urban rail rail_electric rail_fast ship" speed="3.65" length="4.67" shape="-1.52,221.38 -1.14,222.78 -0.51,223.41 0.38,223.28 1.52,222.40"/>
    </edge>
    <edge id=":411503254_0" function="internal">
        <lane id=":411503254_0_0" index="0" disallow="tram rail_urban rail rail_electric rail_fast ship" speed="3.65" length="4.67" shape="187.82,85.51 188.49,86.79 189.24,87.27 190.08,86.96 191.01,85.86"/>
    </edge>
    <edge id=":411503278_0" function="internal">
        <lane id=":411503278_0_0" index="0" disallow="tram rail_urban rail rail_electric rail_fast ship" speed="8.33" length="13.23" shape="202.33,30.67 199.07,29.49 196.23,28.13 193.39,26.78 190.12,25.64"/>
    </edge>
    <edge id=":411503278_1" function="internal">
        <lane id=":411503278_1_0" index="0" disallow="tram rail_urban rail rail_electric rail_fast ship" speed="6.90" length="11.58" shape="202.33,30.67 198.69,30.05 195.98,30.53 194.22,32.09 193.39,34.74"/>
    </edge>
    <edge id=":411503278_2" function="internal">
        <lane id=":411503278_2_0" index="0" disallow="tram rail_urban rail rail_electric rail_fast ship" speed="8.04" length="12.66" shape="196.58,35.09 196.48,31.69 195.37,28.98 193.25,26.96 190.12,25.64"/>
    </edge>
    <edge id=":411503278_3" function="internal">
        <lane id=":411503278_3_0" index="0" disallow="tram rail_urban rail rail_electric rail_fast ship" speed="3.65" length="4.67" shape="196.58,35.09 195.91,33.81 195.16,33.33 194.32,33.64 193.39,34.74"/>
    </edge>
    <edge id=":411503278_4" function="internal">
        <lane id=":411503278_4_0" index="0" disallow="tram rail_urban rail rail_electric rail_fast ship" speed="6.54" length="8.05" shape="189.29,28.73 191.28,29.57 192.63,30.85 193.33,32.58 193.39,34.74"/>
    </edge>
    <edge id=":411503278_5" function="internal">
        <lane id=":411503278_5_0" index="0" disallow="tram rail_urban rail rail_electric rail_fast ship" speed="3.65" length="4.67" shape="189.29,28.73 190.65,28.27 191.25,27.60 191.07,26.72 190.12,25.64"/>
    </edge>
    <edge id=":411503297_0" function="internal">
        <lane id=":411503297_0_0" index="0" allow="pedestrian delivery bicycle" speed="4.66" length="6.49" shape="60.89,212.56 60.37,214.55 59.53,215.40 58.38,215.10 56.91,213.67"/>
    </edge>
    <edge id=":411503297_1" function="internal">
        <lane id=":411503297_1_0" index="0" allow="pedestrian delivery bicycle" speed="3.65" length="4.67" shape="54.43,215.69 55.80,216.11 56.68,215.92 57.04,215.10 56.91,213.67"/>
    </edge>
    <edge id=":411503299_0" function="internal">
        <lane id=":411503299_0_0" index="0" disallow="tram rail_urban rail rail_electric rail_fast ship" speed="8.33" length="8.58" shape="75.33,142.79 72.79,142.66 71.05,142.46 69.36,142.05 66.93,141.28"/>
    </edge>
    <edge id=":411503299_1" function="internal">
        <lane id=":411503299_1_0" index="0" disallow="tram rail_urban rail rail_electric rail_fast ship" speed="7.21" length="10.49" shape="75.33,142.79 73.30,143.20 71.68,144.62 70.49,147.07 69.71,150.53"/>
    </edge>
    <edge id=":411503299_2" function="internal">
        <lane id=":411503299_2_0" index="0" disallow="tram rail_urban rail rail_electric rail_fast ship" speed="3.65" length="4.67" shape="75.33,142.79 74.10,143.54 73.66,144.32 74.02,145.14 75.19,145.99"/>
    </edge>
    <edge id=":411503299_3" function="internal">
        <lane id=":411503299_3_0" index="0" disallow="tram rail_urban rail rail_electric rail_fast ship" speed="6.58" length="8.00" shape="65.93,144.32 67.84,145.26 69.10,146.61 69.73,148.36 69.71,150.53"/>
    </edge>
    <edge id=":411503299_4" function="internal">
        <lane id=":411503299_4_0" index="0" disallow="tram rail_urban rail rail_electric rail_fast ship" speed="8.33" length="9.46" shape="65.93,144.32 68.60,145.17 70.47,145.63 72.39,145.84 75.19,145.99"/>
    </edge>
    <edge id=":411503299_5" function="internal">
        <lane id=":411503299_5_0" index="0" disallow="tram rail_urban rail rail_electric rail_fast ship" speed="3.65" length="4.67" shape="65.93,144.32 67.32,143.94 67.95,143.30 67.82,142.42 66.93,141.28"/>
    </edge>
    <edge id=":5854865944_0" function="internal">
        <lane id=":5854865944_0_0" index="0" allow="pedestrian delivery bicycle" speed="3.65" length="4.67" shape="44.11,197.91 42.73,197.48 41.86,197.67 41.49,198.49 41.62,199.93"/>
    </edge>
    <edge id=":5857257653_0" function="internal">
        <lane id=":5857257653_0_0" index="0" allow="pedestrian delivery bicycle" speed="3.65" length="4.67" shape="119.74,38.99 118.49,39.70 118.03,40.47 118.38,41.30 119.52,42.18"/>
    </edge>
    <edge id=":5857257654_0" function="internal">
        <lane id=":5857257654_0_0" index="0" allow="pedestrian delivery bicycle" speed="5.11" length="5.11" shape="141.11,37.40 140.79,38.73 140.10,39.64 139.04,40.14 137.62,40.24"/>
    </edge>
    <edge id=":5857257654_1" function="internal">
        <lane id=":5857257654_1_0" index="0" disallow="tram rail_urban rail rail_electric rail_fast ship" speed="8.33" length="9.42" shape="141.11,37.40 140.22,46.78"/>
    </edge>
    <edge id=":5857257654_2" function="internal">
        <lane id=":5857257654_2_0" index="0" allow="pedestrian delivery bicycle" speed="5.01" length="5.04" shape="137.40,43.43 138.75,43.72 139.67,44.38 140.16,45.40 140.22,46.78"/>
    </edge>
    <edge id=":5857257654_3" function="internal">
        <lane id=":5857257654_3_0" index="0" allow="pedestrian delivery bicycle" speed="3.65" length="4.67" shape="137.40,43.43 138.65,42.71 139.10,41.94 138.76,41.12 137.62,40.24"/>
    </edge>
    <edge id=":5857257655_0" function="internal">
        <lane id=":5857257655_0_0" index="0" allow="pedestrian delivery bicycle" speed="3.65" length="4.67" shape="63.73,14.48 62.39,15.00 61.82,15.70 62.04,16.57 63.04,17.61"/>
    </edge>
    <edge id=":5857257656_0" function="internal">
        <lane id=":5857257656_0_0" index="0" allow="pedestrian delivery bicycle" speed="3.65" length="4.67" shape="113.68,28.68 115.02,28.15 115.58,27.45 115.35,26.58 114.35,25.55"/>
    </edge>
    <edge id=":631814541_0" function="internal">
        <lane id=":631814541_0_0" index="0" allow="pedestrian delivery bicycle" speed="3.65" length="4.67" shape="325.91,34.41 325.40,33.06 324.71,32.49 323.84,32.70 322.79,33.69"/>
    </edge>
    <edge id=":6340285562_0" function="internal">
        <lane id=":6340285562_0_0" index="0" disallow="tram rail_urban rail rail_electric rail_fast ship" speed="8.33" length="6.89" shape="358.25,78.43 360.20,71.82"/>
    </edge>
    <edge id=":635327105_0" function="internal">
        <lane id=":635327105_0_0" index="0" allow="pedestrian delivery bicycle" speed="6.08" length="7.77" shape="6.38,122.57 6.23,124.69 6.79,126.36 8.08,127.55 10.08,128.28"/>
    </edge>
    <edge id=":635327105_1" function="internal">
        <lane id=":635327105_1_0" index="0" allow="pedestrian delivery bicycle" speed="3.90" length="2.59" shape="10.74,125.15 10.07,124.91 9.65,124.51 9.46,123.96 9.51,123.25"/>
    </edge>
    <edge id=":635327105_2" function="internal">
        <lane id=":635327105_2_0" index="0" disallow="tram rail_urban rail rail_electric rail_fast ship" speed="3.65" length="4.67" shape="10.74,125.15 9.40,125.69 8.85,126.39 9.07,127.25 10.08,128.28"/>
    </edge>
    <edge id=":cluster_10249513898_10249513902_0" function="internal">
        <lane id=":cluster_10249513898_10249513902_0_0" index="0" allow="pedestrian delivery bicycle" speed="5.56" length="12.81" shape="11.47,97.91 11.09,101.29 10.51,104.23 9.80,107.15 9.01,110.47"/>
    </edge>
    <edge id=":cluster_10249513898_10249513902_1" function="internal">
        <lane id=":cluster_10249513898_10249513902_1_0" index="0" allow="pedestrian delivery bicycle" speed="5.56" length="16.42" shape="11.47,97.91 12.53,101.61 15.12,105.23 17.61,108.85 18.35,112.50"/>
    </edge>
    <edge id=":cluster_10249513898_10249513902_2" function="internal">
        <lane id=":cluster_10249513898_10249513902_2_0" index="0" allow="pedestrian delivery bicycle" speed="5.10" length="10.73" shape="11.47,97.91 13.55,100.48 15.47,101.23 17.21,100.14 18.78,97.23"/>
    </edge>
    <edge id=":cluster_10249513898_10249513902_3" function="internal">
        <lane id=":cluster_10249513898_10249513902_3_0" index="0" allow="pedestrian delivery bicycle" speed="5.56" length="16.26" shape="21.48,113.18 21.50,109.31 20.62,105.23 19.49,101.13 18.78,97.23"/>
    </edge>
    <edge id=":cluster_10249513898_10249513902_4" function="internal">
        <lane id=":cluster_10249513898_10249513902_4_0" index="0" allow="pedestrian delivery bicycle" speed="3.65" length="4.68" shape="21.48,113.18 20.95,111.84 20.25,111.28 19.39,111.50 18.35,112.50"/>
    </edge>
    <edge id=":cluster_10249513898_10249513902_5" function="internal">
        <lane id=":cluster_10249513898_10249513902_5_0" index="0" allow="pedestrian delivery bicycle" speed="4.08" length="6.35" shape="12.14,111.15 18.35,112.50"/>
    </edge>
    <edge id=":cluster_10249513898_10249513902_6" function="internal">
        <lane id=":cluster_10249513898_10249513902_6_0" index="0" allow="pedestrian delivery bicycle" speed="5.56" length="15.61" shape="12.14,111.15 13.68,107.61 16.00,104.22 18.06,100.82 18.78,97.23"/>
    </edge>
    <edge id=":cluster_10249513898_10249513902_7" function="internal">
        <lane id=":cluster_10249513898_10249513902_7_0" index="0" allow="pedestrian delivery bicycle" speed="3.65" length="4.67" shape="12.14,111.15 11.61,109.81 10.92,109.25 10.05,109.47 9.01,110.47"/>
    </edge>
    <edge id=":cluster_2768659079_2768659084_0" function="internal">
        <lane id=":cluster_2768659079_2768659084_0_0" index="0" allow="pedestrian delivery bicycle" speed="5.82" length="6.23" shape="318.18,53.08 317.51,54.46 316.46,55.37 315.03,55.80 313.23,55.76"/>
    </edge>
    <edge id=":cluster_2768659079_2768659084_1" function="internal">
        <lane id=":cluster_2768659079_2768659084_1_0" index="0" allow="pedestrian delivery bicycle" speed="6.95" length="12.02" shape="318.18,53.08 314.90,64.64"/>
    </edge>
    <edge id=":cluster_2768659079_2768659084_2" function="internal">
        <lane id=":cluster_2768659079_2768659084_2_0" index="0" allow="pedestrian delivery bicycle" speed="3.65" length="4.67" shape="318.18,53.08 318.61,54.45 319.27,55.06 320.15,54.91 321.25,53.98"/>
    </edge>
    <edge id=":cluster_2768659079_2768659084_3" function="internal">
        <lane id=":cluster_2768659079_2768659084_3_0" index="0" allow="pedestrian delivery bicycle" speed="5.12" length="5.25" shape="323.66,57.89 322.27,57.31 321.41,56.46 321.07,55.35 321.25,53.98"/>
    </edge>
    <edge id=":cluster_2768659079_2768659084_4" function="internal">
        <lane id=":cluster_2768659079_2768659084_4_0" index="0" disallow="tram rail_urban rail rail_electric rail_fast ship" speed="8.33" length="10.66" shape="323.66,57.89 320.69,57.10 318.49,56.59 316.27,56.20 313.23,55.76"/>
    </edge>
    <edge id=":cluster_2768659079_2768659084_5" function="internal">
        <lane id=":cluster_2768659079_2768659084_5_0" index="0" allow="pedestrian delivery bicycle" speed="7.53" length="12.56" shape="323.66,57.89 320.67,57.64 318.22,58.68 316.30,61.01 314.90,64.64"/>
    </edge>
    <edge id=":cluster_2768659079_2768659084_6" function="internal">
        <lane id=":cluster_2768659079_2768659084_6_0" index="0" allow="pedestrian delivery bicycle" speed="6.95" length="11.93" shape="317.99,65.46 321.25,53.98"/>
    </edge>
    <edge id=":cluster_2768659079_2768659084_7" function="internal">
        <lane id=":cluster_2768659079_2768659084_7_0" index="0" allow="pedestrian delivery bicycle" speed="7.28" length="12.62" shape="317.99,65.46 318.56,61.59 317.95,58.69 316.18,56.74 313.23,55.76"/>
    </edge>
    <edge id=":cluster_2768659079_2768659084_8" function="internal">
        <lane id=":cluster_2768659079_2768659084_8_0" index="0" allow="pedestrian delivery bicycle" speed="3.65" length="4.67" shape="317.99,65.46 317.53,64.09 316.86,63.50 315.98,63.68 314.90,64.64"/>
    </edge>

    <edge id="-1" from="635327105" to="12649678" priority="3" type="highway.residential">
        <lane id="-1_0" index="0" disallow="tram rail_urban rail rail_electric rail_fast ship" speed="8.33" length="12.84" shape="10.08,128.28 22.65,130.94">
            <param key="origId" value="1"/>
        </lane>
    </edge>
    <edge id="-11" from="5854865944" to="411503297" priority="1" type="highway.service">
        <lane id="-11_0" index="0" allow="pedestrian delivery bicycle" speed="5.56" length="20.31" shape="41.62,199.93 54.43,215.69">
            <param key="origId" value="11"/>
        </lane>
    </edge>
    <edge id="-12" from="12649678" to="411503299" priority="3" type="highway.residential">
        <lane id="-12_0" index="0" disallow="tram rail_urban rail rail_electric rail_fast ship" speed="8.33" length="30.75" shape="36.73,134.71 65.93,144.32">
            <param key="origId" value="12"/>
        </lane>
    </edge>
    <edge id="-16" from="cluster_10249513898_10249513902" to="635327105" priority="1" type="highway.service" shape="10.58,110.81 7.26,126.05">
        <lane id="-16_0" index="0" allow="pedestrian delivery bicycle" speed="5.56" length="12.38" shape="9.01,110.47 6.38,122.57">
            <param key="origId" value="16"/>
        </lane>
        <param key="origFrom" value="10249513902"/>
    </edge>
    <edge id="-18" from="411503299" to="1396845249" priority="3" type="highway.residential">
        <lane id="-18_0" index="0" disallow="tram rail_urban rail rail_electric rail_fast ship" speed="8.33" length="49.68" shape="75.19,145.99 124.81,148.26">
            <param key="origId" value="18"/>
        </lane>
    </edge>
    <edge id="-19" from="5857257656" to="2711634122" priority="1" type="highway.service">
        <lane id="-19_0" index="0" allow="pedestrian delivery bicycle" speed="5.56" length="17.78" shape="114.35,25.55 96.96,21.81">
            <param key="origId" value="19"/>
        </lane>
    </edge>