<?xml version="1.0" encoding="UTF-8"?>

<!-- generated on 2023-11-21 16:22:43 by Eclipse SUMO netconvert Version 1.18.0
<configuration xmlns:xsi="http://www.w3.org/2001/XMLSchema-instance" xsi:noNamespaceSchemaLocation="http://sumo.dlr.de/xsd/netconvertConfiguration.xsd">

    <input>
        <type-files value="./config/osmNetconvert.typ.xml,./config/osmNetconvertUrbanDe.typ.xml"/>
        <osm-files value="data/202311211622/graph202311211622.osm"/>
    </input>

    <output>
        <output-file value="data/202311211622/graph202311211622.net.xml"/>
        <output.original-names value="true"/>
    </output>

    <projection>
        <proj.utm value="true"/>
    </projection>

    <processing>
        <geometry.remove value="true"/>
        <lefthand value="true"/>
    </processing>

    <tls_building>
        <tls.discard-simple value="true"/>
        <tls.join value="true"/>
        <tls.ignore-internal-junction-jam value="true"/>
        <tls.guess-signals value="true"/>
    </tls_building>

    <ramp_guessing>
        <ramps.guess value="true"/>
    </ramp_guessing>

    <junctions>
        <junctions.join value="true"/>
    </junctions>

</configuration>
-->

<net version="1.16" junctionCornerDetail="5" lefthand="true" limitTurnSpeed="5.50" tlsIgnoreInternalJunctionJam="1" xmlns:xsi="http://www.w3.org/2001/XMLSchema-instance" xsi:noNamespaceSchemaLocation="http://sumo.dlr.de/xsd/net_file.xsd">

    <location netOffset="-680884.14,-5914314.23" convBoundary="0.00,-0.00,788.07,462.69" origBoundary="-6.282435,53.346903,-6.270698,53.350914" projParameter="+proj=utm +zone=29 +ellps=WGS84 +datum=WGS84 +units=m +no_defs"/>

    <type id="highway.cycleway" priority="1" numLanes="1" speed="5.56" allow="bicycle" oneway="0" width="2.00"/>
    <type id="highway.footway" priority="1" numLanes="1" speed="2.78" allow="pedestrian" oneway="1" width="2.00"/>
    <type id="highway.pedestrian" priority="1" numLanes="1" speed="2.78" allow="pedestrian" oneway="1" width="2.00"/>
    <type id="highway.residential" priority="3" numLanes="1" speed="13.89" disallow="tram rail_urban rail rail_electric rail_fast ship" oneway="0"/>
    <type id="highway.secondary" priority="11" numLanes="1" speed="13.89" disallow="tram rail_urban rail rail_electric rail_fast ship" oneway="0"/>
    <type id="highway.secondary_link" priority="6" numLanes="1" speed="13.89" disallow="tram rail_urban rail rail_electric rail_fast ship" oneway="0"/>
    <type id="highway.service" priority="1" numLanes="1" speed="5.56" allow="pedestrian delivery bicycle" oneway="0"/>
    <type id="highway.tertiary" priority="10" numLanes="1" speed="13.89" disallow="tram rail_urban rail rail_electric rail_fast ship" oneway="0"/>
    <type id="highway.unclassified" priority="4" numLanes="1" speed="13.89" disallow="tram rail_urban rail rail_electric rail_fast ship" oneway="0"/>

    <edge id=":1008271033_0" function="internal">
        <lane id=":1008271033_0_0" index="0" disallow="tram rail_urban rail rail_electric rail_fast ship" speed="8.33" length="7.01" shape="179.71,190.80 178.96,183.84"/>
        <lane id=":1008271033_0_1" index="1" disallow="tram rail_urban rail rail_electric rail_fast ship" speed="8.33" length="7.01" shape="176.53,191.15 175.78,184.18"/>
        <lane id=":1008271033_0_2" index="2" disallow="tram rail_urban rail rail_electric rail_fast ship" speed="8.33" length="7.01" shape="173.35,191.50 172.59,184.52"/>
    </edge>
    <edge id=":10249513879_0" function="internal">
        <lane id=":10249513879_0_0" index="0" allow="pedestrian delivery bicycle" speed="3.65" length="4.67" shape="701.94,84.61 702.45,85.96 703.14,86.53 704.01,86.32 705.06,85.33"/>
    </edge>
    <edge id=":10249513880_0" function="internal">
        <lane id=":10249513880_0_0" index="0" allow="pedestrian delivery bicycle" speed="5.56" length="9.39" shape="713.53,62.03 704.34,60.13"/>
    </edge>
    <edge id=":10249513880_1" function="internal">
        <lane id=":10249513880_1_0" index="0" allow="pedestrian delivery bicycle" speed="5.56" length="10.16" shape="713.53,62.03 710.79,61.87 708.63,62.64 707.05,64.34 706.04,66.96"/>
    </edge>
    <edge id=":10249513880_2" function="internal">
        <lane id=":10249513880_2_0" index="0" allow="pedestrian delivery bicycle" speed="3.65" length="4.67" shape="713.53,62.03 712.19,62.57 711.64,63.28 711.87,64.14 712.89,65.17"/>
    </edge>
    <edge id=":10249513880_3" function="internal">
        <lane id=":10249513880_3_0" index="0" allow="pedestrian delivery bicycle" speed="5.12" length="5.10" shape="709.16,67.68 709.67,66.35 710.46,65.49 711.53,65.09 712.89,65.17"/>
    </edge>
    <edge id=":10249513880_4" function="internal">
        <lane id=":10249513880_4_0" index="0" allow="pedestrian delivery bicycle" speed="5.56" length="10.27" shape="709.16,67.68 709.40,64.87 708.68,62.67 706.99,61.09 704.34,60.13"/>
    </edge>
    <edge id=":10249513880_5" function="internal">
        <lane id=":10249513880_5_0" index="0" allow="pedestrian delivery bicycle" speed="3.65" length="4.67" shape="709.16,67.68 708.65,66.33 707.96,65.76 707.09,65.97 706.04,66.96"/>
    </edge>
    <edge id=":10249513880_6" function="internal">
        <lane id=":10249513880_6_0" index="0" allow="pedestrian delivery bicycle" speed="5.02" length="5.03" shape="703.68,63.26 704.98,63.73 705.81,64.51 706.16,65.58 706.04,66.96"/>
    </edge>
    <edge id=":10249513880_7" function="internal">
        <lane id=":10249513880_7_0" index="0" allow="pedestrian delivery bicycle" speed="5.56" length="9.40" shape="703.68,63.26 712.89,65.17"/>
    </edge>
    <edge id=":10249513880_8" function="internal">
        <lane id=":10249513880_8_0" index="0" allow="pedestrian delivery bicycle" speed="3.65" length="4.67" shape="703.68,63.26 705.02,62.72 705.58,62.02 705.35,61.16 704.34,60.13"/>
    </edge>
    <edge id=":10249513881_0" function="internal">
        <lane id=":10249513881_0_0" index="0" allow="pedestrian delivery bicycle" speed="3.65" length="4.67" shape="682.16,55.51 680.83,56.05 680.27,56.75 680.50,57.62 681.51,58.64"/>
    </edge>
    <edge id=":10249513882_0" function="internal">
        <lane id=":10249513882_0_0" index="0" disallow="tram rail_urban rail rail_electric rail_fast ship" speed="8.33" length="9.40" shape="722.98,70.44 725.06,61.27"/>
    </edge>
    <edge id=":10249513882_1" function="internal">
        <lane id=":10249513882_1_0" index="0" allow="pedestrian delivery bicycle" speed="6.06" length="7.81" shape="722.98,70.44 723.40,67.69 723.25,65.64 722.53,64.28 721.25,63.62"/>
    </edge>
    <edge id=":10249513882_2" function="internal">
        <lane id=":10249513882_2_0" index="0" allow="pedestrian delivery bicycle" speed="6.14" length="7.79" shape="720.60,66.75 722.03,66.64 723.25,65.69 724.26,63.90 725.06,61.27"/>
    </edge>
    <edge id=":10249513882_3" function="internal">
        <lane id=":10249513882_3_0" index="0" allow="pedestrian delivery bicycle" speed="3.65" length="4.67" shape="720.60,66.75 721.94,66.21 722.49,65.50 722.26,64.64 721.25,63.62"/>
    </edge>
    <edge id=":10249513895_0" function="internal">
        <lane id=":10249513895_0_0" index="0" allow="pedestrian delivery bicycle" speed="3.65" length="4.67" shape="691.37,139.29 691.94,140.62 692.65,141.16 693.51,140.91 694.52,139.88"/>
    </edge>
    <edge id=":10249513901_0" function="internal">
        <lane id=":10249513901_0_0" index="0" allow="pedestrian delivery bicycle" speed="3.71" length="4.64" shape="690.67,90.69 689.87,89.51 689.07,89.11 688.28,89.51 687.49,90.71"/>
    </edge>
    <edge id=":10575362401_0" function="internal">
        <lane id=":10575362401_0_0" index="0" disallow="tram rail_urban rail rail_electric rail_fast ship" speed="8.33" length="5.50" shape="166.98,323.33 168.71,322.66 169.85,322.06 170.83,321.24 172.10,319.89"/>
        <lane id=":10575362401_0_1" index="1" disallow="tram rail_urban rail rail_electric rail_fast ship" speed="8.33" length="5.50" shape="165.86,320.33 167.17,319.83 168.03,319.38 168.77,318.76 169.73,317.74"/>
    </edge>
    <edge id=":10575395889_0" function="internal">
        <lane id=":10575395889_0_0" index="0" allow="pedestrian delivery bicycle" speed="3.65" length="4.67" shape="192.09,234.09 193.19,233.16 193.49,232.31 193.00,231.57 191.71,230.91"/>
    </edge>
    <edge id=":12117940_0" function="internal">
        <lane id=":12117940_0_0" index="0" disallow="tram rail_urban rail rail_electric rail_fast ship" speed="8.33" length="11.19" shape="301.67,410.19 312.64,412.20"/>
        <lane id=":12117940_0_1" index="1" disallow="tram rail_urban rail rail_electric rail_fast ship" speed="8.33" length="11.19" shape="302.21,407.04 313.25,409.06"/>
    </edge>
    <edge id=":12117940_2" function="internal">
        <lane id=":12117940_2_0" index="0" disallow="tram rail_urban rail rail_electric rail_fast ship" speed="6.16" length="9.05" shape="302.21,407.04 304.76,407.11 306.57,406.32 307.66,404.66 308.02,402.14"/>
    </edge>
    <edge id=":12117942_0" function="internal">
        <lane id=":12117942_0_0" index="0" disallow="tram rail_urban rail rail_electric rail_fast ship" speed="8.33" length="7.24" shape="181.08,403.81 188.32,403.62"/>
    </edge>
    <edge id=":12117942_1" function="internal">
        <lane id=":12117942_1_0" index="0" disallow="tram rail_urban rail rail_electric rail_fast ship" speed="8.33" length="4.32" shape="184.04,399.61 185.24,400.05 186.09,400.31 186.96,400.42 188.24,400.42"/>
    </edge>
    <edge id=":12117954_0" function="internal">
        <lane id=":12117954_0_0" index="0" disallow="tram rail_urban rail rail_electric rail_fast ship" speed="6.62" length="9.03" shape="581.64,361.08 581.10,363.47 579.92,365.16 578.11,366.13 575.67,366.40"/>
    </edge>
    <edge id=":12117954_1" function="internal">
        <lane id=":12117954_1_0" index="0" disallow="tram rail_urban rail rail_electric rail_fast ship" speed="9.27" length="19.48" shape="581.64,361.08 581.65,367.67 582.92,372.48 585.45,375.50 589.23,376.73"/>
    </edge>
    <edge id=":12117954_2" function="internal">
        <lane id=":12117954_2_0" index="0" disallow="tram rail_urban rail rail_electric rail_fast ship" speed="3.65" length="4.67" shape="581.64,361.08 582.34,362.34 583.10,362.80 583.93,362.47 584.83,361.34"/>
    </edge>
    <edge id=":12117954_3" function="internal">
        <lane id=":12117954_3_0" index="0" disallow="tram rail_urban rail rail_electric rail_fast ship" speed="7.26" length="11.55" shape="589.72,370.35 587.31,369.63 585.70,367.88 584.87,365.12 584.83,361.34"/>
    </edge>
    <edge id=":12117954_4" function="internal">
        <lane id=":12117954_4_0" index="0" disallow="tram rail_urban rail rail_electric rail_fast ship" speed="13.89" length="14.11" shape="589.72,370.35 575.56,369.60"/>
        <lane id=":12117954_4_1" index="1" disallow="tram rail_urban rail rail_electric rail_fast ship" speed="13.89" length="14.11" shape="589.47,373.54 575.46,372.80"/>
    </edge>
    <edge id=":12117954_6" function="internal">
        <lane id=":12117954_6_0" index="0" disallow="tram rail_urban rail rail_electric rail_fast ship" speed="3.65" length="1.44" shape="589.47,373.54 588.22,374.25"/>
    </edge>
    <edge id=":12117954_11" function="internal">
        <lane id=":12117954_11_0" index="0" disallow="tram rail_urban rail rail_electric rail_fast ship" speed="3.65" length="3.23" shape="588.22,374.25 587.76,375.01 588.09,375.84 589.23,376.73"/>
    </edge>
    <edge id=":12117954_7" function="internal">
        <lane id=":12117954_7_0" index="0" disallow="tram rail_urban rail rail_electric rail_fast ship" speed="13.89" length="13.83" shape="575.24,379.34 588.99,379.92"/>
        <lane id=":12117954_7_1" index="1" disallow="tram rail_urban rail rail_electric rail_fast ship" speed="13.89" length="13.83" shape="575.35,376.14 589.23,376.73"/>
    </edge>
    <edge id=":12117954_9" function="internal">
        <lane id=":12117954_9_0" index="0" disallow="tram rail_urban rail rail_electric rail_fast ship" speed="9.53" length="3.05" shape="575.35,376.14 578.31,375.41"/>
    </edge>
    <edge id=":12117954_10" function="internal">
        <lane id=":12117954_10_0" index="0" disallow="tram rail_urban rail rail_electric rail_fast ship" speed="3.72" length="1.51" shape="575.35,376.14 576.63,375.35"/>
    </edge>
    <edge id=":12117954_12" function="internal">
        <lane id=":12117954_12_0" index="0" disallow="tram rail_urban rail rail_electric rail_fast ship" speed="9.53" length="16.29" shape="578.31,375.41 579.04,375.23 581.85,372.46 583.78,367.83 584.83,361.34"/>
    </edge>
    <edge id=":12117954_13" function="internal">
        <lane id=":12117954_13_0" index="0" disallow="tram rail_urban rail rail_electric rail_fast ship" speed="3.72" length="3.38" shape="576.63,375.35 577.08,374.52 576.69,373.67 575.46,372.80"/>
    </edge>
    <edge id=":12428431_0" function="internal">
        <lane id=":12428431_0_0" index="0" disallow="tram rail_urban rail rail_electric rail_fast ship" speed="7.04" length="7.86" shape="42.60,345.00 43.33,343.31 44.56,342.02 46.30,341.14 48.54,340.68"/>
    </edge>
    <edge id=":12428431_1" function="internal">
        <lane id=":12428431_1_0" index="0" disallow="tram rail_urban rail rail_electric rail_fast ship" speed="3.65" length="1.44" shape="42.60,345.00 42.12,343.65"/>
    </edge>
    <edge id=":12428431_4" function="internal">
        <lane id=":12428431_4_0" index="0" disallow="tram rail_urban rail rail_electric rail_fast ship" speed="3.65" length="3.23" shape="42.12,343.65 41.44,343.06 40.56,343.26 39.50,344.23"/>
    </edge>
    <edge id=":12428431_2" function="internal">
        <lane id=":12428431_2_0" index="0" disallow="tram rail_urban rail rail_electric rail_fast ship" speed="11.11" length="10.62" shape="40.28,333.71 40.47,336.89 40.47,339.12 40.18,341.28 39.50,344.23"/>
    </edge>
    <edge id=":12428431_3" function="internal">
        <lane id=":12428431_3_0" index="0" disallow="tram rail_urban rail rail_electric rail_fast ship" speed="5.78" length="7.12" shape="43.48,333.51 43.88,335.43 44.80,336.73 46.24,337.42 48.20,337.49"/>
    </edge>
    <edge id=":12649673_0" function="internal">
        <lane id=":12649673_0_0" index="0" disallow="tram rail_urban rail rail_electric rail_fast ship" speed="7.21" length="9.75" shape="521.34,131.41 518.62,130.78 516.63,129.57 515.35,127.79 514.80,125.42"/>
    </edge>
    <edge id=":12649673_1" function="internal">
        <lane id=":12649673_1_0" index="0" disallow="tram rail_urban rail rail_electric rail_fast ship" speed="8.33" length="18.26" shape="521.34,131.41 517.09,131.27 512.23,131.49 507.36,131.78 503.10,131.87"/>
    </edge>
    <edge id=":12649673_2" function="internal">
        <lane id=":12649673_2_0" index="0" disallow="tram rail_urban rail rail_electric rail_fast ship" speed="7.84" length="14.57" shape="521.34,131.41 517.29,131.55 514.39,132.97 512.62,135.68 511.98,139.68"/>
    </edge>
    <edge id=":12649673_3" function="internal">
        <lane id=":12649673_3_0" index="0" disallow="tram rail_urban rail rail_electric rail_fast ship" speed="3.65" length="1.44" shape="521.34,131.41 520.06,132.08"/>
    </edge>
    <edge id=":12649673_12" function="internal">
        <lane id=":12649673_12_0" index="0" disallow="tram rail_urban rail rail_electric rail_fast ship" speed="3.65" length="3.23" shape="520.06,132.08 519.57,132.83 519.88,133.67 520.99,134.59"/>
    </edge>
    <edge id=":12649673_4" function="internal">
        <lane id=":12649673_4_0" index="0" disallow="tram rail_urban rail rail_electric rail_fast ship" speed="6.31" length="9.04" shape="515.18,139.72 515.57,137.24 516.67,135.56 518.48,134.68 520.99,134.59"/>
    </edge>
    <edge id=":12649673_5" function="internal">
        <lane id=":12649673_5_0" index="0" disallow="tram rail_urban rail rail_electric rail_fast ship" speed="13.89" length="14.31" shape="515.18,139.72 514.80,125.42"/>
    </edge>
    <edge id=":12649673_6" function="internal">
        <lane id=":12649673_6_0" index="0" disallow="tram rail_urban rail rail_electric rail_fast ship" speed="8.54" length="3.88" shape="515.18,139.72 514.47,136.42 514.12,136.06"/>
    </edge>
    <edge id=":12649673_7" function="internal">
        <lane id=":12649673_7_0" index="0" disallow="tram rail_urban rail rail_electric rail_fast ship" speed="3.65" length="1.44" shape="515.18,139.72 514.40,138.51"/>
    </edge>
    <edge id=":12649673_13" function="internal">
        <lane id=":12649673_13_0" index="0" disallow="tram rail_urban rail rail_electric rail_fast ship" speed="8.54" length="12.24" shape="514.12,136.06 512.21,134.01 508.42,132.50 503.10,131.87"/>
    </edge>
    <edge id=":12649673_14" function="internal">
        <lane id=":12649673_14_0" index="0" disallow="tram rail_urban rail rail_electric rail_fast ship" speed="3.65" length="3.23" shape="514.40,138.51 513.60,138.10 512.80,138.49 511.98,139.68"/>
    </edge>
    <edge id=":12649673_8" function="internal">
        <lane id=":12649673_8_0" index="0" disallow="tram rail_urban rail rail_electric rail_fast ship" speed="6.40" length="9.36" shape="508.42,125.88 508.25,128.56 507.31,130.46 505.59,131.56 503.10,131.87"/>
    </edge>
    <edge id=":12649673_9" function="internal">
        <lane id=":12649673_9_0" index="0" disallow="tram rail_urban rail rail_electric rail_fast ship" speed="13.89" length="14.33" shape="508.42,125.88 509.20,130.33 510.42,133.57 511.53,136.41 511.98,139.68"/>
    </edge>
    <edge id=":12649673_10" function="internal">
        <lane id=":12649673_10_0" index="0" disallow="tram rail_urban rail rail_electric rail_fast ship" speed="8.60" length="3.54" shape="511.61,125.65 512.39,129.10"/>
    </edge>
    <edge id=":12649673_11" function="internal">
        <lane id=":12649673_11_0" index="0" disallow="tram rail_urban rail rail_electric rail_fast ship" speed="3.65" length="1.44" shape="511.61,125.65 512.49,126.79"/>
    </edge>
    <edge id=":12649673_15" function="internal">
        <lane id=":12649673_15_0" index="0" disallow="tram rail_urban rail rail_electric rail_fast ship" speed="8.60" length="10.71" shape="512.39,129.10 512.41,129.20 514.24,131.87 517.10,133.67 520.99,134.59"/>
    </edge>
    <edge id=":12649673_16" function="internal">
        <lane id=":12649673_16_0" index="0" disallow="tram rail_urban rail rail_electric rail_fast ship" speed="3.65" length="3.23" shape="512.49,126.79 513.32,127.13 514.09,126.67 514.80,125.42"/>
    </edge>
    <edge id=":12649678_0" function="internal">
        <lane id=":12649678_0_0" index="0" disallow="tram rail_urban rail rail_electric rail_fast ship" speed="7.28" length="10.71" shape="711.79,152.89 708.81,151.55 706.87,149.81 705.95,147.69 706.05,145.17"/>
    </edge>
    <edge id=":12649678_1" function="internal">
        <lane id=":12649678_1_0" index="0" disallow="tram rail_urban rail rail_electric rail_fast ship" speed="8.33" length="14.93" shape="711.79,152.89 708.22,151.77 704.63,150.76 701.02,149.85 697.37,149.03"/>
    </edge>
    <edge id=":12649678_2" function="internal">
        <lane id=":12649678_2_0" index="0" disallow="tram rail_urban rail rail_electric rail_fast ship" speed="8.10" length="14.50" shape="711.79,152.89 707.96,152.24 704.81,153.01 702.33,155.22 700.54,158.86"/>
    </edge>
    <edge id=":12649678_3" function="internal">
        <lane id=":12649678_3_0" index="0" disallow="tram rail_urban rail rail_electric rail_fast ship" speed="3.65" length="4.67" shape="711.79,152.89 710.40,153.28 709.77,153.91 709.90,154.80 710.79,155.93"/>
    </edge>
    <edge id=":12649678_4" function="internal">
        <lane id=":12649678_4_0" index="0" disallow="tram rail_urban rail rail_electric rail_fast ship" speed="6.62" length="9.36" shape="703.57,159.87 704.74,157.49 706.33,156.04 708.34,155.52 710.79,155.93"/>
    </edge>
    <edge id=":12649678_5" function="internal">
        <lane id=":12649678_5_0" index="0" disallow="tram rail_urban rail rail_electric rail_fast ship" speed="8.33" length="14.93" shape="703.57,159.87 704.47,156.26 704.99,152.57 705.42,148.85 706.05,145.17"/>
    </edge>
    <edge id=":12649678_6" function="internal">
        <lane id=":12649678_6_0" index="0" disallow="tram rail_urban rail rail_electric rail_fast ship" speed="7.81" length="14.64" shape="703.57,159.87 704.30,155.86 703.51,152.71 701.20,150.44 697.37,149.03"/>
    </edge>
    <edge id=":12649678_7" function="internal">
        <lane id=":12649678_7_0" index="0" disallow="tram rail_urban rail rail_electric rail_fast ship" speed="3.65" length="4.67" shape="703.57,159.87 703.20,158.48 702.56,157.84 701.68,157.97 700.54,158.86"/>
    </edge>
    <edge id=":12649678_8" function="internal">
        <lane id=":12649678_8_0" index="0" disallow="tram rail_urban rail rail_electric rail_fast ship" speed="6.27" length="9.04" shape="696.71,152.16 699.07,153.03 700.50,154.43 700.99,156.38 700.54,158.86"/>
    </edge>
    <edge id=":12649678_9" function="internal">
        <lane id=":12649678_9_0" index="0" disallow="tram rail_urban rail rail_electric rail_fast ship" speed="8.33" length="14.58" shape="696.71,152.16 700.30,152.97 703.80,153.85 707.27,154.83 710.79,155.93"/>
    </edge>
    <edge id=":12649678_10" function="internal">
        <lane id=":12649678_10_0" index="0" disallow="tram rail_urban rail rail_electric rail_fast ship" speed="7.79" length="13.24" shape="696.71,152.16 700.07,152.31 702.74,151.20 704.74,148.81 706.05,145.17"/>
    </edge>
    <edge id=":12649678_11" function="internal">
        <lane id=":12649678_11_0" index="0" disallow="tram rail_urban rail rail_electric rail_fast ship" speed="3.65" length="4.67" shape="696.71,152.16 698.05,151.63 698.60,150.93 698.38,150.06 697.37,149.03"/>
    </edge>
    <edge id=":12649686_0" function="internal">
        <lane id=":12649686_0_0" index="0" disallow="tram rail_urban rail rail_electric rail_fast ship" speed="8.33" length="11.26" shape="448.57,346.25 446.41,345.12 444.73,343.26 443.50,340.65 442.75,337.31"/>
    </edge>
    <edge id=":12649686_1" function="internal">
        <lane id=":12649686_1_0" index="0" disallow="tram rail_urban rail rail_electric rail_fast ship" speed="8.33" length="14.54" shape="448.57,346.25 444.40,344.97 441.51,344.20 438.59,343.57 434.31,342.71"/>
        <lane id=":12649686_1_1" index="1" disallow="tram rail_urban rail rail_electric rail_fast ship" speed="8.33" length="14.54" shape="447.61,349.30 443.54,348.05 440.72,347.30 437.86,346.68 433.68,345.85"/>
    </edge>
    <edge id=":12649686_3" function="internal">
        <lane id=":12649686_3_0" index="0" disallow="tram rail_urban rail rail_electric rail_fast ship" speed="5.90" length="9.11" shape="439.58,337.75 439.57,340.39 438.70,342.09 436.94,342.87 434.31,342.71"/>
    </edge>
    <edge id=":12649686_4" function="internal">
        <lane id=":12649686_4_0" index="0" disallow="tram rail_urban rail rail_electric rail_fast ship" speed="3.65" length="4.67" shape="439.58,337.75 440.54,338.83 441.38,339.11 442.12,338.61 442.75,337.31"/>
    </edge>
    <edge id=":12649688_0" function="internal">
        <lane id=":12649688_0_0" index="0" disallow="tram rail_urban rail rail_electric rail_fast ship" speed="6.98" length="8.76" shape="388.44,127.97 385.87,127.59 383.91,126.70 382.58,125.28 381.86,123.34"/>
    </edge>
    <edge id=":12649688_1" function="internal">
        <lane id=":12649688_1_0" index="0" disallow="tram rail_urban rail rail_electric rail_fast ship" speed="6.42" length="11.56" shape="388.44,127.97 384.60,128.22 382.23,129.34 381.33,131.33 381.90,134.18"/>
    </edge>
    <edge id=":12649688_2" function="internal">
        <lane id=":12649688_2_0" index="0" disallow="tram rail_urban rail rail_electric rail_fast ship" speed="8.33" length="10.15" shape="384.88,133.00 383.75,130.22 383.02,128.27 382.46,126.27 381.86,123.34"/>
    </edge>
    <edge id=":12649688_3" function="internal">
        <lane id=":12649688_3_0" index="0" disallow="tram rail_urban rail rail_electric rail_fast ship" speed="3.65" length="4.67" shape="384.88,133.00 383.69,132.18 382.80,132.10 382.20,132.77 381.90,134.18"/>
    </edge>
    <edge id=":12649688_4" function="internal">
        <lane id=":12649688_4_0" index="0" disallow="tram rail_urban rail rail_electric rail_fast ship" speed="8.33" length="10.77" shape="378.72,123.92 379.34,126.95 379.96,129.15 380.75,131.31 381.90,134.18"/>
    </edge>
    <edge id=":12649688_5" function="internal">
        <lane id=":12649688_5_0" index="0" disallow="tram rail_urban rail rail_electric rail_fast ship" speed="3.65" length="4.67" shape="378.72,123.92 379.72,124.96 380.58,125.21 381.29,124.67 381.86,123.34"/>
    </edge>
    <edge id=":130234246_0" function="internal">
        <lane id=":130234246_0_0" index="0" disallow="tram rail_urban rail rail_electric rail_fast ship" speed="8.33" length="8.80" shape="306.00,231.10 306.91,239.85"/>
    </edge>
    <edge id=":130234246_1" function="internal">
        <lane id=":130234246_1_0" index="0" disallow="tram rail_urban rail rail_electric rail_fast ship" speed="5.77" length="7.27" shape="306.00,231.10 306.52,232.48 307.70,233.32 309.53,233.60 312.01,233.33"/>
    </edge>
    <edge id=":130234247_0" function="internal">
        <lane id=":130234247_0_0" index="0" allow="pedestrian delivery bicycle" speed="5.96" length="6.63" shape="415.76,211.61 414.08,211.66 412.70,211.12 411.60,210.00 410.78,208.29"/>
    </edge>
    <edge id=":130234247_1" function="internal">
        <lane id=":130234247_1_0" index="0" allow="pedestrian delivery bicycle" speed="6.78" length="10.74" shape="415.76,211.61 412.93,212.58 411.20,214.22 410.57,216.51 411.05,219.46"/>
    </edge>
    <edge id=":130234247_2" function="internal">
        <lane id=":130234247_2_0" index="0" allow="pedestrian delivery bicycle" speed="3.65" length="4.67" shape="415.76,211.61 414.73,212.62 414.48,213.48 415.03,214.19 416.36,214.75"/>
    </edge>
    <edge id=":130234247_3" function="internal">
        <lane id=":130234247_3_0" index="0" allow="pedestrian delivery bicycle" speed="4.93" length="5.14" shape="414.10,218.51 413.88,217.10 414.17,216.00 415.00,215.22 416.36,214.75"/>
    </edge>
    <edge id=":130234247_4" function="internal">
        <lane id=":130234247_4_0" index="0" disallow="tram rail_urban rail rail_electric rail_fast ship" speed="8.33" length="10.75" shape="414.10,218.51 410.78,208.29"/>
    </edge>
    <edge id=":130234247_5" function="internal">
        <lane id=":130234247_5_0" index="0" disallow="tram rail_urban rail rail_electric rail_fast ship" speed="3.65" length="1.44" shape="414.10,218.51 412.98,217.60"/>
    </edge>
    <edge id=":130234247_12" function="internal">
        <lane id=":130234247_12_0" index="0" disallow="tram rail_urban rail rail_electric rail_fast ship" speed="3.65" length="3.23" shape="412.98,217.60 412.10,217.46 411.45,218.08 411.05,219.46"/>
    </edge>
    <edge id=":130234247_6" function="internal">
        <lane id=":130234247_6_0" index="0" disallow="tram rail_urban rail rail_electric rail_fast ship" speed="6.72" length="8.87" shape="404.16,215.47 406.59,215.33 408.54,215.95 410.03,217.33 411.05,219.46"/>
    </edge>
    <edge id=":130234247_7" function="internal">
        <lane id=":130234247_7_0" index="0" allow="pedestrian delivery bicycle" speed="6.95" length="12.23" shape="404.16,215.47 407.45,215.09 410.26,215.10 413.07,215.12 416.36,214.75"/>
    </edge>
    <edge id=":130234247_8" function="internal">
        <lane id=":130234247_8_0" index="0" disallow="tram rail_urban rail rail_electric rail_fast ship" speed="6.90" length="11.33" shape="404.16,215.47 407.76,214.40 410.06,212.85 411.06,210.81 410.78,208.29"/>
    </edge>
    <edge id=":130234247_9" function="internal">
        <lane id=":130234247_9_0" index="0" disallow="tram rail_urban rail rail_electric rail_fast ship" speed="8.33" length="10.67" shape="407.75,209.31 411.05,219.46"/>
    </edge>
    <edge id=":130234247_10" function="internal">
        <lane id=":130234247_10_0" index="0" allow="pedestrian delivery bicycle" speed="6.95" length="3.63" shape="407.75,209.31 409.13,212.15 409.47,212.48"/>
    </edge>
    <edge id=":130234247_11" function="internal">
        <lane id=":130234247_11_0" index="0" disallow="tram rail_urban rail rail_electric rail_fast ship" speed="3.65" length="1.44" shape="407.75,209.31 408.89,210.19"/>
    </edge>
    <edge id=":130234247_13" function="internal">
        <lane id=":130234247_13_0" index="0" allow="pedestrian delivery bicycle" speed="6.95" length="7.66" shape="409.47,212.48 411.02,214.00 413.43,214.87 416.36,214.75"/>
    </edge>
    <edge id=":130234247_14" function="internal">
        <lane id=":130234247_14_0" index="0" disallow="tram rail_urban rail rail_electric rail_fast ship" speed="3.65" length="3.23" shape="408.89,210.19 409.77,210.32 410.40,209.68 410.78,208.29"/>
    </edge>
    <edge id=":130234349_0" function="internal">
        <lane id=":130234349_0_0" index="0" disallow="tram rail_urban rail rail_electric rail_fast ship" speed="8.33" length="14.45" shape="430.20,269.52 425.79,255.76"/>
    </edge>
    <edge id=":130234349_1" function="internal">
        <lane id=":130234349_1_0" index="0" disallow="tram rail_urban rail rail_electric rail_fast ship" speed="7.73" length="14.88" shape="430.20,269.52 428.35,265.77 425.81,263.73 422.57,263.41 418.63,264.81"/>
    </edge>
    <edge id=":130234349_2" function="internal">
        <lane id=":130234349_2_0" index="0" disallow="tram rail_urban rail rail_electric rail_fast ship" speed="3.65" length="4.67" shape="430.20,269.52 429.07,268.63 428.18,268.49 427.55,269.12 427.16,270.51"/>
    </edge>
    <edge id=":130234349_3" function="internal">
        <lane id=":130234349_3_0" index="0" disallow="tram rail_urban rail rail_electric rail_fast ship" speed="6.17" length="9.05" shape="420.11,267.64 422.51,266.79 424.48,266.99 426.03,268.23 427.16,270.51"/>
    </edge>
    <edge id=":130234349_4" function="internal">