<?xml version="1.0" encoding="UTF-8"?>
<configuration>
    <input>
        <net-file value="DCC.net.xml"/>
        <route-files value="test.rou.xml"/>
    </input>
    <time>
        <begin value="0"/>
        <end value="1000"/>
    </time>
</configuration>
