<routes>
    <vType id="car" accel="1.0" decel="4.5" sigma="0.5" length="5" maxSpeed="25"/>
    <route id="testRoute" edges="361450282 -3191573#4 -3191573#3 -3191573#2 -3191573#1 -3191573#0 81982570#0 4395595#0 361450282 -3191573#4 -3191573#3 -3191573#2 -3191573#1 -3191573#0 81982570#0 4395595#0 361450282 -3191573#4 -3191573#3 -3191573#2 -3191573#1 -3191573#0 81982570#0 4395595#0 361450282 -3191573#4 -3191573#3 -3191573#2 -3191573#1 -3191573#0 81982570#0 4395595#0 361450282 -3191573#4 -3191573#3 -3191573#2 -3191573#1 -3191573#0 81982570#0 4395595#0 361450282 -3191573#4 -3191573#3 -3191573#2 -3191573#1 -3191573#0 81982570#0 4395595#0 361450282 -3191573#4 -3191573#3 -3191573#2 -3191573#1 -3191573#0 81982570#0 4395595#0 361450282 -3191573#4 -3191573#3 -3191573#2 -3191573#1 -3191573#0 81982570#0 4395595#0 4395595#0 3785494#1 -3785494#2 231649298#2 -81982570#1 3191573#0 3191573#1 3191573#2 3191573#3 3191573#4 81982578#0 81982578#2 81982578#3 81982578#6 81982578#9 81982578#10 81982578#13 5825858#2 5825858#3 5825858#4 81982579#0 563891696#1 636824319#0 636824319#2 81982573#1 376394516#0 376394516#2 376394516#3 376394516#4 376394516#6 39247403#1 326772508#0 326772508#1 11685178#0 -14047191 -14047190#2 -14047190#1 -14047190#0 -4395775#4 -4395775#2 3787117#0 32117788#0 32117788#7 32117788#9 32117788#10 -32117788#10 -32117788#9 -32117788#7 -32117788#6 -3787117#3 4395931 317183891#0 317183891#3 4395830 4395858#0 -7990023#1 7990020#4 7990024#0 4395595#0 3785494#1 -3785494#2 231649298#2 -81982570#1 3191573#0 3191573#1 3191573#2 3191573#3 3191573#4 81982578#0 81982578#2 81982578#3 81982578#6 81982578#9 81982578#10 81982578#13 5825858#2 5825858#3 5825858#4 81982579#0 563891696#1 636824319#0 636824319#2 81982573#1 376394516#0 376394516#2 376394516#3 376394516#4 376394516#6 39247403#1 326772508#0 326772508#1 11685178#0 -14047191 -14047190#2 -14047190#1 -14047190#0 -4395775#4 -4395775#2 3787117#0 32117788#0 32117788#7 32117788#9 32117788#10 -32117788#10 -32117788#9 -32117788#7 -32117788#6 -3787117#3 4395931 317183891#0 317183891#3 4395830 4395858#0 -7990023#1 7990020#4 7990024#0 4395595#0 3785494#1 -3785494#2 231649298#2 -81982570#1 3191573#0 3191573#1 3191573#2 3191573#3 3191573#4 81982578#0 81982578#2 81982578#3 81982578#6 81982578#9 81982578#10 81982578#13 5825858#2 5825858#3 5825858#4 81982579#0 563891696#1 636824319#0 636824319#2 81982573#1 376394516#0 376394516#2 376394516#3 376394516#4 376394516#6 39247403#1 326772508#0 326772508#1 11685178#0 -14047191 -14047190#2 -14047190#1 -14047190#0 -4395775#4 -4395775#2 3787117#0 32117788#0 32117788#7 32117788#9 32117788#10 -32117788#10 -32117788#9 -32117788#7 -32117788#6 -3787117#3 4395931 317183891#0 317183891#3 4395830 4395858#0 -7990023#1 7990020#4 7990024#0 4395595#0 3785494#1 -3785494#2 231649298#2 -81982570#1 3191573#0 3191573#1 3191573#2 3191573#3 3191573#4 81982578#0 81982578#2 81982578#3 81982578#6 81982578#9 81982578#10 81982578#13 5825858#2 5825858#3 5825858#4 81982579#0 563891696#1 636824319#0 636824319#2 81982573#1 376394516#0 376394516#2 376394516#3 376394516#4 376394516#6 39247403#1 326772508#0 326772508#1 11685178#0 -14047191 -14047190#2 -14047190#1 -14047190#0 -4395775#4 -4395775#2 3787117#0 32117788#0 32117788#7 32117788#9 32117788#10 -32117788#10 -32117788#9 -32117788#7 -32117788#6 -3787117#3 4395931 317183891#0 317183891#3 4395830 4395858#0 -7990023#1 7990020#4 7990024#0 4395595#0 3785494#1 -3785494#2 231649298#2 -81982570#1 3191573#0 3191573#1 3191573#2 3191573#3 3191573#4 81982578#0 81982578#2 81982578#3 81982578#6 81982578#9 81982578#10 81982578#13 5825858#2 5825858#3 5825858#4 81982579#0 563891696#1 636824319#0 636824319#2 81982573#1 376394516#0 376394516#2 376394516#3 376394516#4 376394516#6 39247403#1 326772508#0 326772508#1 11685178#0 -14047191 -14047190#2 -14047190#1 -14047190#0 -4395775#4 -4395775#2 3787117#0 32117788#0 32117788#7 32117788#9 32117788#10 -32117788#10 -32117788#9 -32117788#7 -32117788#6 -3787117#3 4395931 317183891#0 317183891#3 4395830 4395858#0 -7990023#1 7990020#4 7990024#0 4395595#0 3785494#1 -3785494#2 231649298#2 -81982570#1 3191573#0 3191573#1 3191573#2 3191573#3 3191573#4 81982578#0 81982578#2 81982578#3 81982578#6 81982578#9 81982578#10 81982578#13 5825858#2 5825858#3 5825858#4 81982579#0 563891696#1 636824319#0 636824319#2 81982573#1 376394516#0 376394516#2 376394516#3 376394516#4 376394516#6 39247403#1 326772508#0 326772508#1 11685178#0 -14047191 -14047190#2 -14047190#1 -14047190#0 -4395775#4 -4395775#2 3787117#0 32117788#0 32117788#7 32117788#9 32117788#10 -32117788#10 -32117788#9 -32117788#7 -32117788#6 -3787117#3 4395931 317183891#0 317183891#3 4395830 4395858#0 -7990023#1 7990020#4 7990024#0 4395595#0 3785494#1 -3785494#2 231649298#2 -81982570#1 3191573#0 3191573#1 3191573#2 3191573#3 3191573#4 81982578#0 81982578#2 81982578#3 81982578#6 81982578#9 81982578#10 81982578#13 5825858#2 5825858#3 5825858#4 81982579#0 563891696#1 636824319#0 636824319#2 81982573#1 376394516#0 376394516#2 376394516#3 376394516#4 376394516#6 39247403#1 326772508#0 326772508#1 11685178#0 -14047191 -14047190#2 -14047190#1 -14047190#0 -4395775#4 -4395775#2 3787117#0 32117788#0 32117788#7 32117788#9 32117788#10 -32117788#10 -32117788#9 -32117788#7 -32117788#6 -3787117#3 4395931 317183891#0 317183891#3 4395830 4395858#0 -7990023#1 7990020#4 7990024#0 4395595#0 3785494#1 -3785494#2 231649298#2 -81982570#1 3191573#0 3191573#1 3191573#2 3191573#3 3191573#4 81982578#0 81982578#2 81982578#3 81982578#6 81982578#9 81982578#10 81982578#13 5825858#2 5825858#3 5825858#4 81982579#0 563891696#1 636824319#0 636824319#2 81982573#1 376394516#0 376394516#2 376394516#3 376394516#4 376394516#6 39247403#1 326772508#0 326772508#1 11685178#0 -14047191 -14047190#2 -14047190#1 -14047190#0 -4395775#4 -4395775#2 3787117#0 32117788#0 32117788#7 32117788#9 32117788#10 -32117788#10 -32117788#9 -32117788#7 -32117788#6 -3787117#3 4395931 317183891#0 317183891#3 4395830 4395858#0 -7990023#1 7990020#4 7990024#0 4395595#0 3785494#1 -3785494#2 231649298#2 -81982570#1 3191573#0 3191573#1 3191573#2 3191573#3 3191573#4 81982578#0 81982578#2 81982578#3 81982578#6 81982578#9 81982578#10 81982578#13 5825858#2 5825858#3 5825858#4 81982579#0 563891696#1 636824319#0 636824319#2 81982573#1 376394516#0 376394516#2 376394516#3 376394516#4 376394516#6 39247403#1 326772508#0 326772508#1 11685178#0 -14047191 -14047190#2 -14047190#1 -14047190#0 -4395775#4 -4395775#2 3787117#0 32117788#0 32117788#7 32117788#9 32117788#10 -32117788#10 -32117788#9 -32117788#7 -32117788#6 -3787117#3 4395931 317183891#0 317183891#3 4395830 4395858#0 -7990023#1 7990020#4 7990024#0 4395595#0 3785494#1 -3785494#2 231649298#2 -81982570#1 3191573#0 3191573#1 3191573#2 3191573#3 3191573#4 81982578#0 81982578#2 81982578#3 81982578#6 81982578#9 81982578#10 81982578#13 5825858#2 5825858#3 5825858#4 81982579#0 563891696#1 636824319#0 636824319#2 81982573#1 376394516#0 376394516#2 376394516#3 376394516#4 376394516#6 39247403#1 326772508#0 326772508#1 11685178#0 -14047191 -14047190#2 -14047190#1 -14047190#0 -4395775#4 -4395775#2 3787117#0 32117788#0 32117788#7 32117788#9 32117788#10 -32117788#10 -32117788#9 -32117788#7 -32117788#6 -3787117#3 4395931 317183891#0 317183891#3 4395830 4395858#0 -7990023#1 7990020#4 7990024#0 4395595#0 3785494#1 -3785494#2 231649298#2 -81982570#1 3191573#0 3191573#1 3191573#2 3191573#3 3191573#4 81982578#0 81982578#2 81982578#3 81982578#6 81982578#9 81982578#10 81982578#13 5825858#2 5825858#3 5825858#4 81982579#0 563891696#1 636824319#0 636824319#2 81982573#1 376394516#0 376394516#2 376394516#3 376394516#4 376394516#6 39247403#1 326772508#0 326772508#1 11685178#0 -14047191 -14047190#2 -14047190#1 -14047190#0 -4395775#4 -4395775#2 3787117#0 32117788#0 32117788#7 32117788#9 32117788#10 -32117788#10 -32117788#9 -32117788#7 -32117788#6 -3787117#3 4395931 317183891#0 317183891#3 4395830 4395858#0 -7990023#1 7990020#4 7990024#0 4395595#0 3785494#1 -3785494#2 231649298#2 -81982570#1 3191573#0 3191573#1 3191573#2 3191573#3 3191573#4 81982578#0 81982578#2 81982578#3 81982578#6 81982578#9 81982578#10 81982578#13 5825858#2 5825858#3 5825858#4 81982579#0 563891696#1 636824319#0 636824319#2 81982573#1 376394516#0 376394516#2 376394516#3 376394516#4 376394516#6 39247403#1 326772508#0 326772508#1 11685178#0 -14047191 -14047190#2 -14047190#1 -14047190#0 -4395775#4 -4395775#2 3787117#0 32117788#0 32117788#7 32117788#9 32117788#10 -32117788#10 -32117788#9 -32117788#7 -32117788#6 -3787117#3 4395931 317183891#0 317183891#3 4395830 4395858#0 -7990023#1 7990020#4 7990024#0 4395595#0 3785494#1 -3785494#2 231649298#2 -81982570#1 3191573#0 3191573#1 3191573#2 3191573#3 3191573#4 81982578#0 81982578#2 81982578#3 81982578#6 81982578#9 81982578#10 81982578#13 5825858#2 5825858#3 5825858#4 81982579#0 563891696#1 636824319#0 636824319#2 81982573#1 376394516#0 376394516#2 376394516#3 376394516#4 376394516#6 39247403#1 326772508#0 326772508#1 11685178#0 -14047191 -14047190#2 -14047190#1 -14047190#0 -4395775#4 -4395775#2 3787117#0 32117788#0 32117788#7 32117788#9 32117788#10 -32117788#10 -32117788#9 -32117788#7 -32117788#6 -3787117#3 4395931 317183891#0 317183891#3 4395830 4395858#0 -7990023#1 7990020#4 7990024#0 4395595#0 3785494#1 -3785494#2 231649298#2 -81982570#1 3191573#0 3191573#1 3191573#2 3191573#3 3191573#4 81982578#0 81982578#2 81982578#3 81982578#6 81982578#9 81982578#10 81982578#13 5825858#2 5825858#3 5825858#4 81982579#0 563891696#1 636824319#0 636824319#2 81982573#1 376394516#0 376394516#2 376394516#3 376394516#4 376394516#6 39247403#1 326772508#0 326772508#1 11685178#0 -14047191 -14047190#2 -14047190#1 -14047190#0 -4395775#4 -4395775#2 3787117#0 32117788#0 32117788#7 32117788#9 32117788#10 -32117788#10 -32117788#9 -32117788#7 -32117788#6 -3787117#3 4395931 317183891#0 317183891#3 4395830 4395858#0 -7990023#1 7990020#4 7990024#0 4395595#0 3785494#1 -3785494#2 231649298#2 -81982570#1 3191573#0 3191573#1 3191573#2 3191573#3 3191573#4 81982578#0 81982578#2 81982578#3 81982578#6 81982578#9 81982578#10 81982578#13 5825858#2 5825858#3 5825858#4 81982579#0 563891696#1 636824319#0 636824319#2 81982573#1 376394516#0 376394516#2 376394516#3 376394516#4 376394516#6 39247403#1 326772508#0 326772508#1 11685178#0 -14047191 -14047190#2 -14047190#1 -14047190#0 -4395775#4 -4395775#2 3787117#0 32117788#0 32117788#7 32117788#9 32117788#10 -32117788#10 -32117788#9 -32117788#7 -32117788#6 -3787117#3 4395931 317183891#0 317183891#3 4395830 4395858#0 -7990023#1 7990020#4 7990024#0 4395595#0 3785494#1 -3785494#2 231649298#2 -81982570#1 3191573#0 3191573#1 3191573#2 3191573#3 3191573#4 81982578#0 81982578#2 81982578#3 81982578#6 81982578#9 81982578#10 81982578#13 5825858#2 5825858#3 5825858#4 81982579#0 563891696#1 636824319#0 636824319#2 81982573#1 376394516#0 376394516#2 376394516#3 376394516#4 376394516#6 39247403#1 326772508#0 326772508#1 11685178#0 -14047191 -14047190#2 -14047190#1 -14047190#0 -4395775#4 -4395775#2 3787117#0 32117788#0 32117788#7 32117788#9 32117788#10 -32117788#10 -32117788#9 -32117788#7 -32117788#6 -3787117#3 4395931 317183891#0 317183891#3 4395830 4395858#0 -7990023#1 7990020#4 7990024#0 4395595#0 3785494#1 -3785494#2 231649298#2 -81982570#1 3191573#0 3191573#1 3191573#2 3191573#3 3191573#4 81982578#0 81982578#2 81982578#3 81982578#6 81982578#9 81982578#10 81982578#13 5825858#2 5825858#3 5825858#4 81982579#0 563891696#1 636824319#0 636824319#2 81982573#1 376394516#0 376394516#2 376394516#3 376394516#4 376394516#6 39247403#1 326772508#0 326772508#1 11685178#0 -14047191 -14047190#2 -14047190#1 -14047190#0 -4395775#4 -4395775#2 3787117#0 32117788#0 32117788#7 32117788#9 32117788#10 -32117788#10 -32117788#9 -32117788#7 -32117788#6 -3787117#3 4395931 317183891#0 317183891#3 4395830 4395858#0 -7990023#1 7990020#4 7990024#0 4395595#0 3785494#1 -3785494#2 231649298#2 -81982570#1 3191573#0 3191573#1 3191573#2 3191573#3 3191573#4 81982578#0 81982578#2 81982578#3 81982578#6 81982578#9 81982578#10 81982578#13 5825858#2 5825858#3 5825858#4 81982579#0 563891696#1 636824319#0 636824319#2 81982573#1 376394516#0 376394516#2 376394516#3 376394516#4 376394516#6 39247403#1 326772508#0 326772508#1 11685178#0 -14047191 -14047190#2 -14047190#1 -14047190#0 -4395775#4 -4395775#2 3787117#0 32117788#0 32117788#7 32117788#9 32117788#10 -32117788#10 -32117788#9 -32117788#7 -32117788#6 -3787117#3 4395931 317183891#0 317183891#3 4395830 4395858#0 -7990023#1 7990020#4 7990024#0 4395595#0 3785494#1 -3785494#2 231649298#2 -81982570#1 3191573#0 3191573#1 3191573#2 3191573#3 3191573#4 81982578#0 81982578#2 81982578#3 81982578#6 81982578#9 81982578#10 81982578#13 5825858#2 5825858#3 5825858#4 81982579#0 563891696#1 636824319#0 636824319#2 81982573#1 376394516#0 376394516#2 376394516#3 376394516#4 376394516#6 39247403#1 326772508#0 326772508#1 11685178#0 -14047191 -14047190#2 -14047190#1 -14047190#0 -4395775#4 -4395775#2 3787117#0 32117788#0 32117788#7 32117788#9 32117788#10 -32117788#10 -32117788#9 -32117788#7 -32117788#6 -3787117#3 4395931 317183891#0 317183891#3 4395830 4395858#0 -7990023#1 7990020#4 7990024#0 4395595#0 3785494#1 -3785494#2 231649298#2 -81982570#1 3191573#0 3191573#1 3191573#2 3191573#3 3191573#4 81982578#0 81982578#2 81982578#3 81982578#6 81982578#9 81982578#10 81982578#13 5825858#2 5825858#3 5825858#4 81982579#0 563891696#1 636824319#0 636824319#2 81982573#1 376394516#0 376394516#2 376394516#3 376394516#4 376394516#6 39247403#1 326772508#0 326772508#1 11685178#0 -14047191 -14047190#2 -14047190#1 -14047190#0 -4395775#4 -4395775#2 3787117#0 32117788#0 32117788#7 32117788#9 32117788#10 -32117788#10 -32117788#9 -32117788#7 -32117788#6 -3787117#3 4395931 317183891#0 317183891#3 4395830 4395858#0 -7990023#1 7990020#4 7990024#0 4395595#0 3785494#1 -3785494#2 231649298#2 -81982570#1 3191573#0 3191573#1 3191573#2 3191573#3 3191573#4 81982578#0 81982578#2 81982578#3 81982578#6 81982578#9 81982578#10 81982578#13 5825858#2 5825858#3 5825858#4 81982579#0 563891696#1 636824319#0 636824319#2 81982573#1 376394516#0 376394516#2 376394516#3 376394516#4 376394516#6 39247403#1 326772508#0 326772508#1 11685178#0 -14047191 -14047190#2 -14047190#1 -14047190#0 -4395775#4 -4395775#2 3787117#0 32117788#0 32117788#7 32117788#9 32117788#10 -32117788#10 -32117788#9 -32117788#7 -32117788#6 -3787117#3 4395931 317183891#0 317183891#3 4395830 4395858#0 -7990023#1 7990020#4 7990024#0 4395595#0 3785494#1 -3785494#2 231649298#2 -81982570#1 3191573#0 3191573#1 3191573#2 3191573#3 3191573#4 81982578#0 81982578#2 81982578#3 81982578#6 81982578#9 81982578#10 81982578#13 5825858#2 5825858#3 5825858#4 81982579#0 563891696#1 636824319#0 636824319#2 81982573#1 376394516#0 376394516#2 376394516#3 376394516#4 376394516#6 39247403#1 326772508#0 326772508#1 11685178#0 -14047191 -14047190#2 -14047190#1 -14047190#0 -4395775#4 -4395775#2 3787117#0 32117788#0 32117788#7 32117788#9 32117788#10 -32117788#10 -32117788#9 -32117788#7 -32117788#6 -3787117#3 4395931 317183891#0 317183891#3 4395830 4395858#0 -7990023#1 7990020#4 7990024#0 4395595#0 3785494#1 -3785494#2 231649298#2 -81982570#1 3191573#0 3191573#1 3191573#2 3191573#3 3191573#4 81982578#0 81982578#2 81982578#3 81982578#6 81982578#9 81982578#10 81982578#13 5825858#2 5825858#3 5825858#4 81982579#0 563891696#1 636824319#0 636824319#2 81982573#1 376394516#0 376394516#2 376394516#3 376394516#4 376394516#6 39247403#1 326772508#0 326772508#1 11685178#0 -14047191 -14047190#2 -14047190#1 -14047190#0 -4395775#4 -4395775#2 3787117#0 32117788#0 32117788#7 32117788#9 32117788#10 -32117788#10 -32117788#9 -32117788#7 -32117788#6 -3787117#3 4395931 317183891#0 317183891#3 4395830 4395858#0 -7990023#1 7990020#4 7990024#0 4395595#0 3785494#1 -3785494#2 231649298#2 -81982570#1 3191573#0 3191573#1 3191573#2 3191573#3 3191573#4 81982578#0 81982578#2 81982578#3 81982578#6 81982578#9 81982578#10 81982578#13 5825858#2 5825858#3 5825858#4 81982579#0 563891696#1 636824319#0 636824319#2 81982573#1 376394516#0 376394516#2 376394516#3 376394516#4 376394516#6 39247403#1 326772508#0 326772508#1 11685178#0 -14047191 -14047190#2 -14047190#1 -14047190#0 -4395775#4 -4395775#2 3787117#0 32117788#0 32117788#7 32117788#9 32117788#10 -32117788#10 -32117788#9 -32117788#7 -32117788#6 -3787117#3 4395931 317183891#0 317183891#3 4395830 4395858#0 -7990023#1 7990020#4 7990024#0 4395595#0 3785494#1 -3785494#2 231649298#2 -81982570#1 3191573#0 3191573#1 3191573#2 3191573#3 3191573#4 81982578#0 81982578#2 81982578#3 81982578#6 81982578#9 81982578#10 81982578#13 5825858#2 5825858#3 5825858#4 81982579#0 563891696#1 636824319#0 636824319#2 81982573#1 376394516#0 376394516#2 376394516#3 376394516#4 376394516#6 39247403#1 326772508#0 326772508#1 11685178#0 -14047191 -14047190#2 -14047190#1 -14047190#0 -4395775#4 -4395775#2 3787117#0 32117788#0 32117788#7 32117788#9 32117788#10 -32117788#10 -32117788#9 -32117788#7 -32117788#6 -3787117#3 4395931 317183891#0 317183891#3 4395830 4395858#0 -7990023#1 7990020#4 7990024#0 4395595#0 3785494#1 -3785494#2 231649298#2 -81982570#1 3191573#0 3191573#1 3191573#2 3191573#3 3191573#4 81982578#0 81982578#2 81982578#3 81982578#6 81982578#9 81982578#10 81982578#13 5825858#2 5825858#3 5825858#4 81982579#0 563891696#1 636824319#0 636824319#2 81982573#1 376394516#0 376394516#2 376394516#3 376394516#4 376394516#6 39247403#1 326772508#0 326772508#1 11685178#0 -14047191 -14047190#2 -14047190#1 -14047190#0 -4395775#4 -4395775#2 3787117#0 32117788#0 32117788#7 32117788#9 32117788#10 -32117788#10 -32117788#9 -32117788#7 -32117788#6 -3787117#3 4395931 317183891#0 317183891#3 4395830 4395858#0 -7990023#1 7990020#4 7990024#0 4395595#0 3785494#1 -3785494#2 231649298#2 -81982570#1 3191573#0 3191573#1 3191573#2 3191573#3 3191573#4 81982578#0 81982578#2 81982578#3 81982578#6 81982578#9 81982578#10 81982578#13 5825858#2 5825858#3 5825858#4 81982579#0 563891696#1 636824319#0 636824319#2 81982573#1 376394516#0 376394516#2 376394516#3 376394516#4 376394516#6 39247403#1 326772508#0 326772508#1 11685178#0 -14047191 -14047190#2 -14047190#1 -14047190#0 -4395775#4 -4395775#2 3787117#0 32117788#0 32117788#7 32117788#9 32117788#10 -32117788#10 -32117788#9 -32117788#7 -32117788#6 -3787117#3 4395931 317183891#0 317183891#3 4395830 4395858#0 -7990023#1 7990020#4 7990024#0 4395595#0 3785494#1 -3785494#2 231649298#2 -81982570#1 3191573#0 3191573#1 3191573#2 3191573#3 3191573#4 81982578#0 81982578#2 81982578#3 81982578#6 81982578#9 81982578#10 81982578#13 5825858#2 5825858#3 5825858#4 81982579#0 563891696#1 636824319#0 636824319#2 81982573#1 376394516#0 376394516#2 376394516#3 376394516#4 376394516#6 39247403#1 326772508#0 326772508#1 11685178#0 -14047191 -14047190#2 -14047190#1 -14047190#0 -4395775#4 -4395775#2 3787117#0 32117788#0 32117788#7 32117788#9 32117788#10 -32117788#10 -32117788#9 -32117788#7 -32117788#6 -3787117#3 4395931 317183891#0 317183891#3 4395830 4395858#0 -7990023#1 7990020#4 7990024#0 4395595#0 3785494#1 -3785494#2 231649298#2 -81982570#1 3191573#0 3191573#1 3191573#2 3191573#3 3191573#4 81982578#0 81982578#2 81982578#3 81982578#6 81982578#9 81982578#10 81982578#13 5825858#2 5825858#3 5825858#4 81982579#0 563891696#1 636824319#0 636824319#2 81982573#1 376394516#0 376394516#2 376394516#3 376394516#4 376394516#6 39247403#1 326772508#0 326772508#1 11685178#0 -14047191 -14047190#2 -14047190#1 -14047190#0 -4395775#4 -4395775#2 3787117#0 32117788#0 32117788#7 32117788#9 32117788#10 -32117788#10 -32117788#9 -32117788#7 -32117788#6 -3787117#3 4395931 317183891#0 317183891#3 4395830 4395858#0 -7990023#1 7990020#4 7990024#0 4395595#0 3785494#1 -3785494#2 231649298#2 -81982570#1 3191573#0 3191573#1 3191573#2 3191573#3 3191573#4 81982578#0 81982578#2 81982578#3 81982578#6 81982578#9 81982578#10 81982578#13 5825858#2 5825858#3 5825858#4 81982579#0 563891696#1 636824319#0 636824319#2 81982573#1 376394516#0 376394516#2 376394516#3 376394516#4 376394516#6 39247403#1 326772508#0 326772508#1 11685178#0 -14047191 -14047190#2 -14047190#1 -14047190#0 -4395775#4 -4395775#2 3787117#0 32117788#0 32117788#7 32117788#9 32117788#10 -32117788#10 -32117788#9 -32117788#7 -32117788#6 -3787117#3 4395931 317183891#0 317183891#3 4395830 4395858#0 -7990023#1 7990020#4 7990024#0 4395595#0 3785494#1 -3785494#2 231649298#2 -81982570#1 3191573#0 3191573#1 3191573#2 3191573#3 3191573#4 81982578#0 81982578#2 81982578#3 81982578#6 81982578#9 81982578#10 81982578#13 5825858#2 5825858#3 5825858#4 81982579#0 563891696#1 636824319#0 636824319#2 81982573#1 376394516#0 376394516#2 376394516#3 376394516#4 376394516#6 39247403#1 326772508#0 326772508#1 11685178#0 -14047191 -14047190#2 -14047190#1 -14047190#0 -4395775#4 -4395775#2 3787117#0 32117788#0 32117788#7 32117788#9 32117788#10 -32117788#10 -32117788#9 -32117788#7 -32117788#6 -3787117#3 4395931 317183891#0 317183891#3 4395830 4395858#0 -7990023#1 7990020#4 7990024#0 4395595#0 3785494#1 -3785494#2 231649298#2 -81982570#1 3191573#0 3191573#1 3191573#2 3191573#3 3191573#4 81982578#0 81982578#2 81982578#3 81982578#6 81982578#9 81982578#10 81982578#13 5825858#2 5825858#3 5825858#4 81982579#0 563891696#1 636824319#0 636824319#2 81982573#1 376394516#0 376394516#2 376394516#3 376394516#4 376394516#6 39247403#1 326772508#0 326772508#1 11685178#0 -14047191 -14047190#2 -14047190#1 -14047190#0 -4395775#4 -4395775#2 3787117#0 32117788#0 32117788#7 32117788#9 32117788#10 -32117788#10 -32117788#9 -32117788#7 -32117788#6 -3787117#3 4395931 317183891#0 317183891#3 4395830 4395858#0 -7990023#1 7990020#4 7990024#0 4395595#0 3785494#1 -3785494#2 231649298#2 -81982570#1 3191573#0 3191573#1 3191573#2 3191573#3 3191573#4 81982578#0 81982578#2 81982578#3 81982578#6 81982578#9 81982578#10 81982578#13 5825858#2 5825858#3 5825858#4 81982579#0 563891696#1 636824319#0 636824319#2 81982573#1 376394516#0 376394516#2 376394516#3 376394516#4 376394516#6 39247403#1 326772508#0 326772508#1 11685178#0 -14047191 -14047190#2 -14047190#1 -14047190#0 -4395775#4 -4395775#2 3787117#0 32117788#0 32117788#7 32117788#9 32117788#10 -32117788#10 -32117788#9 -32117788#7 -32117788#6 -3787117#3 4395931 317183891#0 317183891#3 4395830 4395858#0 -7990023#1 7990020#4 7990024#0 4395595#0 3785494#1 -3785494#2 231649298#2 -81982570#1 3191573#0 3191573#1 3191573#2 3191573#3 3191573#4 81982578#0 81982578#2 81982578#3 81982578#6 81982578#9 81982578#10 81982578#13 5825858#2 5825858#3 5825858#4 81982579#0 563891696#1 636824319#0 636824319#2 81982573#1 376394516#0 376394516#2 376394516#3 376394516#4 376394516#6 39247403#1 326772508#0 326772508#1 11685178#0 -14047191 -14047190#2 -14047190#1 -14047190#0 -4395775#4 -4395775#2 3787117#0 32117788#0 32117788#7 32117788#9 32117788#10 -32117788#10 -32117788#9 -32117788#7 -32117788#6 -3787117#3 4395931 317183891#0 317183891#3 4395830 4395858#0 -7990023#1 7990020#4 7990024#0 4395595#0 3785494#1 -3785494#2 231649298#2 -81982570#1 3191573#0 3191573#1 3191573#2 3191573#3 3191573#4 81982578#0 81982578#2 81982578#3 81982578#6 81982578#9 81982578#10 81982578#13 5825858#2 5825858#3 5825858#4 81982579#0 563891696#1 636824319#0 636824319#2 81982573#1 376394516#0 376394516#2 376394516#3 376394516#4 376394516#6 39247403#1 326772508#0 326772508#1 11685178#0 -14047191 -14047190#2 -14047190#1 -14047190#0 -4395775#4 -4395775#2 3787117#0 32117788#0 32117788#7 32117788#9 32117788#10 -32117788#10 -32117788#9 -32117788#7 -32117788#6 -3787117#3 4395931 317183891#0 317183891#3 4395830 4395858#0 -7990023#1 7990020#4 7990024#0 4395595#0 3785494#1 -3785494#2 231649298#2 -81982570#1 3191573#0 3191573#1 3191573#2 3191573#3 3191573#4 81982578#0 81982578#2 81982578#3 81982578#6 81982578#9 81982578#10 81982578#13 5825858#2 5825858#3 5825858#4 81982579#0 563891696#1 636824319#0 636824319#2 81982573#1 376394516#0 376394516#2 376394516#3 376394516#4 376394516#6 39247403#1 326772508#0 326772508#1 11685178#0 -14047191 -14047190#2 -14047190#1 -14047190#0 -4395775#4 -4395775#2 3787117#0 32117788#0 32117788#7 32117788#9 32117788#10 -32117788#10 -32117788#9 -32117788#7 -32117788#6 -3787117#3 4395931 317183891#0 317183891#3 4395830 4395858#0 -7990023#1 7990020#4 7990024#0 4395595#0 3785494#1 -3785494#2 231649298#2 -81982570#1 3191573#0 3191573#1 3191573#2 3191573#3 3191573#4 81982578#0 81982578#2 81982578#3 81982578#6 81982578#9 81982578#10 81982578#13 5825858#2 5825858#3 5825858#4 81982579#0 563891696#1 636824319#0 636824319#2 81982573#1 376394516#0 376394516#2 376394516#3 376394516#4 376394516#6 39247403#1 326772508#0 326772508#1 11685178#0 -14047191 -14047190#2 -14047190#1 -14047190#0 -4395775#4 -4395775#2 3787117#0 32117788#0 32117788#7 32117788#9 32117788#10 -32117788#10 -32117788#9 -32117788#7 -32117788#6 -3787117#3 4395931 317183891#0 317183891#3 4395830 4395858#0 -7990023#1 7990020#4 7990024#0 4395595#0 3785494#1 -3785494#2 231649298#2 -81982570#1 3191573#0 3191573#1 3191573#2 3191573#3 3191573#4 81982578#0 81982578#2 81982578#3 81982578#6 81982578#9 81982578#10 81982578#13 5825858#2 5825858#3 5825858#4 81982579#0 563891696#1 636824319#0 636824319#2 81982573#1 376394516#0 376394516#2 376394516#3 376394516#4 376394516#6 39247403#1 326772508#0 326772508#1 11685178#0 -14047191 -14047190#2 -14047190#1 -14047190#0 -4395775#4 -4395775#2 3787117#0 32117788#0 32117788#7 32117788#9 32117788#10 -32117788#10 -32117788#9 -32117788#7 -32117788#6 -3787117#3 4395931 317183891#0 317183891#3 4395830 4395858#0 -7990023#1 7990020#4 7990024#0 4395595#0 3785494#1 -3785494#2 231649298#2 -81982570#1 3191573#0 3191573#1 3191573#2 3191573#3 3191573#4 81982578#0 81982578#2 81982578#3 81982578#6 81982578#9 81982578#10 81982578#13 5825858#2 5825858#3 5825858#4 81982579#0 563891696#1 636824319#0 636824319#2 81982573#1 376394516#0 376394516#2 376394516#3 376394516#4 376394516#6 39247403#1 326772508#0 326772508#1 11685178#0 -14047191 -14047190#2 -14047190#1 -14047190#0 -4395775#4 -4395775#2 3787117#0 32117788#0 32117788#7 32117788#9 32117788#10 -32117788#10 -32117788#9 -32117788#7 -32117788#6 -3787117#3 4395931 317183891#0 317183891#3 4395830 4395858#0 -7990023#1 7990020#4 7990024#0 4395595#0 3785494#1 -3785494#2 231649298#2 -81982570#1 3191573#0 3191573#1 3191573#2 3191573#3 3191573#4 81982578#0 81982578#2 81982578#3 81982578#6 81982578#9 81982578#10 81982578#13 5825858#2 5825858#3 5825858#4 81982579#0 563891696#1 636824319#0 636824319#2 81982573#1 376394516#0 376394516#2 376394516#3 376394516#4 376394516#6 39247403#1 326772508#0 326772508#1 11685178#0 -14047191 -14047190#2 -14047190#1 -14047190#0 -4395775#4 -4395775#2 3787117#0 32117788#0 32117788#7 32117788#9 32117788#10 -32117788#10 -32117788#9 -32117788#7 -32117788#6 -3787117#3 4395931 317183891#0 317183891#3 4395830 4395858#0 -7990023#1 7990020#4 7990024#0 4395595#0 3785494#1 -3785494#2 231649298#2 -81982570#1 3191573#0 3191573#1 3191573#2 3191573#3 3191573#4 81982578#0 81982578#2 81982578#3 81982578#6 81982578#9 81982578#10 81982578#13 5825858#2 5825858#3 5825858#4 81982579#0 563891696#1 636824319#0 636824319#2 81982573#1 376394516#0 376394516#2 376394516#3 376394516#4 376394516#6 39247403#1 326772508#0 326772508#1 11685178#0 -14047191 -14047190#2 -14047190#1 -14047190#0 -4395775#4 -4395775#2 3787117#0 32117788#0 32117788#7 32117788#9 32117788#10 -32117788#10 -32117788#9 -32117788#7 -32117788#6 -3787117#3 4395931 317183891#0 317183891#3 4395830 4395858#0 -7990023#1 7990020#4 7990024#0 4395595#0 3785494#1 -3785494#2 231649298#2 -81982570#1 3191573#0 3191573#1 3191573#2 3191573#3 3191573#4 81982578#0 81982578#2 81982578#3 81982578#6 81982578#9 81982578#10 81982578#13 5825858#2 5825858#3 5825858#4 81982579#0 563891696#1 636824319#0 636824319#2 81982573#1 376394516#0 376394516#2 376394516#3 376394516#4 376394516#6 39247403#1 326772508#0 326772508#1 11685178#0 -14047191 -14047190#2 -14047190#1 -14047190#0 -4395775#4 -4395775#2 3787117#0 32117788#0 32117788#7 32117788#9 32117788#10 -32117788#10 -32117788#9 -32117788#7 -32117788#6 -3787117#3 4395931 317183891#0 317183891#3 4395830 4395858#0 -7990023#1 7990020#4 7990024#0 4395595#0 3785494#1 -3785494#2 231649298#2 -81982570#1 3191573#0 3191573#1 3191573#2 3191573#3 3191573#4 81982578#0 81982578#2 81982578#3 81982578#6 81982578#9 81982578#10 81982578#13 5825858#2 5825858#3 5825858#4 81982579#0 563891696#1 636824319#0 636824319#2 81982573#1 376394516#0 376394516#2 376394516#3 376394516#4 376394516#6 39247403#1 326772508#0 326772508#1 11685178#0 -14047191 -14047190#2 -14047190#1 -14047190#0 -4395775#4 -4395775#2 3787117#0 32117788#0 32117788#7 32117788#9 32117788#10 -32117788#10 -32117788#9 -32117788#7 -32117788#6 -3787117#3 4395931 317183891#0 317183891#3 4395830 4395858#0 -7990023#1 7990020#4 7990024#0 4395595#0 3785494#1 -3785494#2 231649298#2 -81982570#1 3191573#0 3191573#1 3191573#2 3191573#3 3191573#4 81982578#0 81982578#2 81982578#3 81982578#6 81982578#9 81982578#10 81982578#13 5825858#2 5825858#3 5825858#4 81982579#0 563891696#1 636824319#0 636824319#2 81982573#1 376394516#0 376394516#2 376394516#3 376394516#4 376394516#6 39247403#1 326772508#0 326772508#1 11685178#0 -14047191 -14047190#2 -14047190#1 -14047190#0 -4395775#4 -4395775#2 3787117#0 32117788#0 32117788#7 32117788#9 32117788#10 -32117788#10 -32117788#9 -32117788#7 -32117788#6 -3787117#3 4395931 317183891#0 317183891#3 4395830 4395858#0 -7990023#1 7990020#4 7990024#0 4395595#0 3785494#1 -3785494#2 231649298#2 -81982570#1 3191573#0 3191573#1 3191573#2 3191573#3 3191573#4 81982578#0 81982578#2 81982578#3 81982578#6 81982578#9 81982578#10 81982578#13 5825858#2 5825858#3 5825858#4 81982579#0 563891696#1 636824319#0 636824319#2 81982573#1 376394516#0 376394516#2 376394516#3 376394516#4 376394516#6 39247403#1 326772508#0 326772508#1 11685178#0 -14047191 -14047190#2 -14047190#1 -14047190#0 -4395775#4 -4395775#2 3787117#0 32117788#0 32117788#7 32117788#9 32117788#10 -32117788#10 -32117788#9 -32117788#7 -32117788#6 -3787117#3 4395931 317183891#0 317183891#3 4395830 4395858#0 -7990023#1 7990020#4 7990024#0 4395595#0 3785494#1 -3785494#2 231649298#2 -81982570#1 3191573#0 3191573#1 3191573#2 3191573#3 3191573#4 81982578#0 81982578#2 81982578#3 81982578#6 81982578#9 81982578#10 81982578#13 5825858#2 5825858#3 5825858#4 81982579#0 563891696#1 636824319#0 636824319#2 81982573#1 376394516#0 376394516#2 3